15
charge 0 multiplicity 2
C            3.25935  -0.20597   0.21251
C            1.78652  -0.09858   0.04055
N            0.89412  -1.03426   0.08237
C           -0.33081  -0.38384  -0.11620
N           -1.46661  -1.04046  -0.15749
C           -2.67285  -0.39106  -0.11875
N           -2.90048   0.71178   0.50383
N           -0.15982   0.97908  -0.29135
N            1.14957   1.12393  -0.19505
H            3.75612   0.73185  -0.04229
H            3.50158  -0.45726   1.24752
H            3.65403  -0.99838  -0.42451
H           -3.46054  -0.96414  -0.61763
H           -3.89167   0.94759   0.43718
H            1.56979   2.03659  -0.30517