15
charge 0 multiplicity 2
C            3.24906  -0.21124   0.25142
C            1.78130  -0.09041   0.04440
N            0.88796  -1.03053   0.08818
C           -0.32847  -0.38206  -0.13204
N           -1.47408  -1.03312  -0.19386
C           -2.66141  -0.34741  -0.15678
N           -2.89416   0.65248   0.61980
N           -0.15728   0.97276  -0.34339
N            1.15445   1.12102  -0.22145
H            3.77039   0.70131  -0.04281
H            3.46376  -0.41005   1.30395
H            3.63753  -1.04579  -0.33308
H           -3.43386  -0.80005  -0.78925
H           -3.87063   0.93057   0.52318
H            1.57158   2.03246  -0.34904