15
charge 0 multiplicity 2
C            3.24486  -0.22556   0.27162
C            1.78075  -0.08447   0.04690
N            0.87824  -1.02570   0.08542
C           -0.31976  -0.36505  -0.14927
N           -1.47482  -1.01733  -0.22062
C           -2.67067  -0.34815  -0.14659
N           -2.89582   0.64290   0.63777
N           -0.15196   0.97420  -0.36005
N            1.16843   1.11684  -0.22893
H            3.78614   0.66790  -0.04574
H            3.44902  -0.39567   1.33173
H            3.62232  -1.08482  -0.28380
H           -3.44845  -0.82740  -0.75059
H           -3.87703   0.91684   0.57367
H            1.58850   2.02615  -0.35637