15
charge 0 multiplicity 2
C            3.24325  -0.22572   0.27573
C            1.77972  -0.08522   0.04749
N            0.87668  -1.02593   0.08541
C           -0.32059  -0.36485  -0.15228
N           -1.47602  -1.01685  -0.22637
C           -2.67044  -0.34856  -0.14265
N           -2.88952   0.64511   0.64098
N           -0.15190   0.97347  -0.36474
N            1.16814   1.11616  -0.23156
H            3.78608   0.66296  -0.05225
H            3.44632  -0.38265   1.33813
H            3.61995  -1.09239  -0.26849
H           -3.45346  -0.82999  -0.73795
H           -3.87117   0.91935   0.58449
H            1.58905   2.02501  -0.35960