15
charge 0 multiplicity 2
C            3.23991  -0.22509   0.28274
C            1.77761  -0.08577   0.04661
N            0.87425  -1.02642   0.08485
C           -0.32197  -0.36593  -0.15600
N           -1.47904  -1.01807  -0.23418
C           -2.66925  -0.34819  -0.13764
N           -2.87543   0.64911   0.64810
N           -0.15305   0.97093  -0.37211
N            1.16667   1.11486  -0.23655
H            3.79021   0.63855  -0.09597
H            3.44285  -0.32156   1.35258
H            3.60766  -1.12504  -0.21064
H           -3.46314  -0.82418  -0.72277
H           -3.85671   0.92604   0.60047
H            1.58747   2.02318  -0.36859