15
charge 0 multiplicity 2
C            3.23858  -0.22486   0.28565
C            1.77683  -0.08627   0.04617
N            0.87323  -1.02672   0.08430
C           -0.32250  -0.36624  -0.15748
N           -1.48023  -1.01834  -0.23720
C           -2.66899  -0.34847  -0.13516
N           -2.86992   0.65128   0.65015
N           -0.15334   0.97004  -0.37490
N            1.16623   1.11431  -0.23850
H            3.79221   0.62554  -0.11750
H            3.44212  -0.29165   1.35776
H            3.60186  -1.13990  -0.18235
H           -3.46744  -0.82381  -0.71448
H           -3.85129   0.92856   0.60685
H            1.58720   2.02228  -0.37227