15
charge 0 multiplicity 2
C            3.24419  -0.22658   0.27309
C            1.78088  -0.08577   0.04656
N            0.87827  -1.02604   0.08504
C           -0.32116  -0.36493  -0.14991
N           -1.47540  -1.01797  -0.22173
C           -2.67059  -0.34962  -0.14395
N           -2.89172   0.64617   0.63665
N           -0.15243   0.97349  -0.36130
N            1.16807   1.11725  -0.22896
H            3.81865   0.30760  -0.48811
H            3.52569   0.17048   1.25277
H            3.50670  -1.28250   0.24000
H           -3.45225  -0.83054  -0.74159
H           -3.87322   0.91963   0.57556
H            1.58698   2.02635  -0.36124