15
charge 0 multiplicity 2
C            3.24423  -0.22647   0.27261
C            1.78077  -0.08575   0.04701
N            0.87820  -1.02602   0.08558
C           -0.32120  -0.36505  -0.14973
N           -1.47546  -1.01812  -0.22171
C           -2.67054  -0.34959  -0.14411
N           -2.89146   0.64624   0.63664
N           -0.15248   0.97334  -0.36138
N            1.16799   1.11717  -0.22915
H            3.81803   0.30219  -0.49295
H            3.52767   0.17656   1.24926
H            3.50565  -1.28283   0.24569
H           -3.45224  -0.82967  -0.74235
H           -3.87284   0.92002   0.57518
H            1.58662   2.02669  -0.35940