15
charge 0 multiplicity 2
C            3.28616  -0.24596   0.01509
C            1.80657  -0.08271   0.00048
N            0.90202  -1.02089   0.00191
C           -0.31179  -0.33912  -0.00764
N           -1.45236  -1.03497  -0.01003
C           -2.70254  -0.48539  -0.00409
N           -2.98831   0.77498   0.02767
N           -0.14930   1.01346  -0.01728
N            1.17720   1.14172  -0.01164
H            3.79483   0.71697  -0.06194
H            3.60183  -0.73380   0.93986
H            3.60038  -0.87628  -0.81867
H           -3.47583  -1.25881  -0.02491
H           -4.00440   0.88645   0.02558
H            1.58810   2.06444  -0.01736