15
charge 0 multiplicity 2
C            3.28630  -0.23661   0.12205
C            1.80812  -0.10041   0.02436
N            0.89758  -1.02763   0.03702
C           -0.30924  -0.33974  -0.06717
N           -1.45159  -1.00621  -0.09488
C           -2.71284  -0.46350  -0.04931
N           -3.00249   0.74425   0.25574
N           -0.13972   1.00995  -0.16243
N            1.18381   1.13193  -0.09974
H            3.77680   0.72776  -0.02670
H            3.57432  -0.62321   1.10281
H            3.65658  -0.93564  -0.63058
H           -3.45541  -1.23449  -0.26433
H           -4.01387   0.89749   0.23895
H            1.61453   2.04365  -0.14963