15
charge 0 multiplicity 2
C            3.27704  -0.22179   0.17239
C            1.80099  -0.10698   0.03584
N            0.89479  -1.03194   0.05900
C           -0.31933  -0.35601  -0.09449
N           -1.45366  -1.01096  -0.13402
C           -2.69998  -0.43513  -0.07777
N           -2.97215   0.72987   0.37500
N           -0.14273   0.99839  -0.23172
N            1.17272   1.12634  -0.14768
H            3.76017   0.73726  -0.02536
H            3.54789  -0.54361   1.18074
H            3.67008  -0.96123  -0.52759
H           -3.45298  -1.14854  -0.41649
H           -3.97786   0.91870   0.35289
H            1.60755   2.03499  -0.22406