15
charge 0 multiplicity 2
C           -1.97487   1.37889  -0.40233
C           -1.03133   0.67471   0.54155
C           -0.95367  -0.93187   0.44110
O           -1.79501  -1.57790  -0.41029
C            0.50813  -0.72200   0.04949
N            1.75867  -1.09639  -0.15165
C            2.37794   0.12794  -0.18259
N            1.59529   1.20115   0.00987
N            0.39327   0.60148   0.12390
H           -1.85508   1.01072  -1.42301
H           -3.00633   1.19921  -0.09076
H           -1.79024   2.45522  -0.39257
H           -1.12650   1.03393   1.56914
H           -1.08716  -1.42392   1.41674
H            3.43762   0.23837  -0.35541