15
charge 0 multiplicity 2
C           -1.97182   1.40044  -0.38652
C           -1.01289   0.68150   0.53085
C           -0.96358  -0.93497   0.41162
O           -1.83444  -1.57952  -0.36438
C            0.50745  -0.73131  -0.00083
N            1.76134  -1.10234  -0.15764
C            2.38663   0.12211  -0.15358
N            1.60468   1.19422   0.02751
N            0.39563   0.59633   0.08127
H           -1.88010   1.03334  -1.41024
H           -2.99721   1.22961  -0.05054
H           -1.77810   2.47511  -0.37713
H           -1.07724   1.02863   1.56429
H           -1.04971  -1.40390   1.41334
H            3.45154   0.22927  -0.29200