15
charge 0 multiplicity 2
C           -1.95750   1.40142  -0.40273
C           -1.01807   0.68343   0.53598
C           -0.97243  -0.93256   0.41648
O           -1.83173  -1.57421  -0.37361
C            0.50761  -0.73266   0.01911
N            1.75667  -1.10459  -0.16710
C            2.38320   0.11957  -0.16731
N            1.60512   1.19164   0.03059
N            0.39801   0.59361   0.11120
H           -1.85380   1.02328  -1.42137
H           -2.98942   1.24192  -0.08089
H           -1.75595   2.47463  -0.40121
H           -1.10124   1.03412   1.56691
H           -1.06697  -1.40644   1.41569
H            3.44586   0.22627  -0.32229