15
charge 0 multiplicity 2
C           -1.95496   1.40468  -0.40190
C           -1.01580   0.68393   0.53491
C           -0.97228  -0.93246   0.41448
O           -1.83761  -1.57381  -0.36983
C            0.50604  -0.73345   0.01428
N            1.75587  -1.10580  -0.16750
C            2.38366   0.11791  -0.16597
N            1.60652   1.19030   0.03263
N            0.39866   0.59275   0.10927
H           -1.85121   1.02976  -1.42175
H           -2.98682   1.24505  -0.08035
H           -1.75235   2.47773  -0.39742
H           -1.09894   1.03324   1.56630
H           -1.06404  -1.40321   1.41467
H            3.44682   0.22353  -0.31836