15
charge 0 multiplicity 2
C           -1.95731   1.40526  -0.39906
C           -1.01411   0.68384   0.53305
C           -0.96934  -0.93299   0.41266
O           -1.83987  -1.57515  -0.36531
C            0.50548  -0.73321   0.00815
N            1.75659  -1.10567  -0.16716
C            2.38411   0.11791  -0.16242
N            1.60668   1.19059   0.03388
N            0.39832   0.59318   0.10282
H           -1.85435   1.03489  -1.42061
H           -2.98791   1.24185  -0.07585
H           -1.75691   2.47874  -0.39054
H           -1.09428   1.03211   1.56502
H           -1.05966  -1.40149   1.41384
H            3.44785   0.22346  -0.31039