15
charge 0 multiplicity 2
C           -1.96223   1.40400  -0.39468
C           -1.01342   0.68316   0.53200
C           -0.96684  -0.93385   0.41175
O           -1.83875  -1.57668  -0.36412
C            0.50577  -0.73257   0.00437
N            1.75814  -1.10449  -0.16424
C            2.38523   0.11907  -0.15892
N            1.60618   1.19165   0.03207
N            0.39748   0.59422   0.09511
H           -1.86214   1.03630  -1.41742
H           -2.99099   1.23669  -0.06774
H           -1.76490   2.47803  -0.38416
H           -1.08826   1.03082   1.56455
H           -1.05673  -1.40210   1.41337
H            3.44943   0.22511  -0.30330