15
charge 0 multiplicity 2
C            3.25126  -0.33278   0.00230
C            1.78256  -0.07762  -0.00179
N            0.82294  -0.98824  -0.00146
C           -0.31672  -0.23210  -0.00043
N           -1.53265  -0.89064  -0.00037
C           -2.81342  -0.38384   0.00047
N           -3.09586   0.85530   0.00192
N           -0.13734   1.07855  -0.00040
N            1.22656   1.14843  -0.00127
H            3.81673   0.60033  -0.06345
H            3.54920  -0.85296   0.91764
H            3.53006  -0.96801  -0.84297
H           -1.43220  -1.89224  -0.00133
H           -3.54294  -1.20396  -0.00015
H            1.67140   2.05109  -0.00210