15
charge 0 multiplicity 2
C            3.25490  -0.27600   0.00257
C            1.78147  -0.06401  -0.00217
N            0.84859  -1.00481  -0.00224
C           -0.31494  -0.28998  -0.00041
N           -1.53053  -0.94363  -0.00002
C           -2.77439  -0.33892   0.00105
N           -3.05245   0.89064   0.00122
N           -0.17789   1.02250  -0.00007
N            1.18404   1.14601  -0.00133
H            3.79199   0.67213  -0.05953
H            3.56019  -0.78963   0.91693
H            3.54731  -0.89959  -0.84437
H           -1.48049  -1.94955  -0.00073
H           -3.60250  -1.05909   0.00051
H            1.59892   2.06423  -0.00191