11
charge 0 multiplicity 2
N           -0.45161   1.96964   0.03164
C           -0.13070   0.68356   0.01377
C            1.25338   0.36692  -0.00444
O            2.21186   1.10849  -0.02431
N            1.48126  -1.12650  -0.00092
N            0.80494  -2.04632   0.00774
O           -1.08560  -1.52463   0.01618
C           -1.33140  -0.27185  -0.00479
O           -2.42692   0.27586  -0.03397
H           -1.44415   2.18475   0.01613
H            0.25952   2.68791   0.02437