11
charge 0 multiplicity 2
N           -0.43189   1.97429  -0.00252
C           -0.12694   0.68410  -0.00062
C            1.25539   0.35032   0.00067
O            2.21768   1.09055   0.00308
N            1.47109  -1.13401  -0.00222
N            0.77983  -2.04571  -0.00244
O           -1.09050  -1.51627   0.00284
C           -1.33140  -0.26026   0.00078
O           -2.42547   0.28887   0.00016
H           -1.42008   2.20675  -0.00205
H            0.29082   2.68121  -0.00134