16
charge 0 multiplicity 2
N            1.83688  -1.20908  -0.47922
H            2.73598  -1.67723  -0.34512
H            1.95171  -0.15399  -0.48544
H            1.44237  -1.48119  -1.38106
C            0.78422  -1.52568   0.62030
C           -0.39404  -0.69491   0.34378
C           -0.48465   0.70001   0.33321
C            0.57973   1.68559   0.62885
O            1.71333   1.54671  -0.31386
N           -1.69857   1.01265  -0.15189
N           -2.32827  -0.14241  -0.41522
N           -1.55103  -1.18964  -0.14664
H            0.56408  -2.59244   0.55760
H            1.30690  -1.30444   1.55676
H            0.19624   2.70753   0.57110
H            1.37139   1.83739  -1.16897