16
charge 0 multiplicity 2
N            1.85468  -1.19780  -0.48207
H            2.75212  -1.66010  -0.32508
H            1.97915  -0.14716  -0.51925
H            1.47133  -1.49755  -1.38004
C            0.80239  -1.48611   0.62305
C           -0.39070  -0.67931   0.33007
C           -0.50913   0.71816   0.27838
C            0.52004   1.71020   0.50197
O            1.77111   1.47871  -0.22123
N           -1.76231   1.00236  -0.14382
N           -2.35181  -0.17017  -0.40653
N           -1.55223  -1.19917  -0.11194
H            0.58681  -2.55350   0.60009
H            1.31040  -1.22487   1.55351
H            0.23930   2.76199   0.54753
H            1.63804   1.86741  -1.09728