16
charge 0 multiplicity 2
N            1.82036  -1.28614  -0.59605
H            2.65595  -1.87083  -0.51026
H            2.08719  -0.28225  -0.60409
H            1.33391  -1.50101  -1.46880
C            0.81480  -1.44034   0.58364
C           -0.36604  -0.62794   0.28419
C           -0.48850   0.76919   0.08067
C            0.47424   1.78240   0.09797
O            1.82699   1.38293   0.09205
N           -1.80629   0.99130  -0.22227
N           -2.42282  -0.18491  -0.20742
N           -1.57768  -1.18265   0.07381
H            0.55533  -2.49538   0.65706
H            1.39042  -1.12185   1.45545
H            0.27037   2.80801  -0.17375
H            2.38887   2.13688   0.29264