16
charge 0 multiplicity 2
N            1.83390  -1.28175  -0.58439
H            2.67021  -1.86409  -0.48968
H            2.09801  -0.27669  -0.59064
H            1.35839  -1.49740  -1.46312
C            0.81784  -1.43904   0.58210
C           -0.36378  -0.63095   0.27129
C           -0.49234   0.76705   0.08195
C            0.46597   1.78570   0.10599
O            1.82100   1.39281   0.07689
N           -1.81206   0.98576  -0.21594
N           -2.42393  -0.19173  -0.20768
N           -1.57461  -1.18901   0.06743
H            0.56115  -2.49505   0.65335
H            1.38104  -1.11953   1.46193
H            0.25287   2.81153  -0.15845
H            2.38098   2.13936   0.30756