16
charge 0 multiplicity 2
N            1.97931  -1.28491  -0.44304
H            2.83829  -1.78816  -0.21532
H            2.16163  -0.24599  -0.45257
H            1.63846  -1.58286  -1.35873
C            0.87189  -1.47515   0.60675
C           -0.31893  -0.68388   0.24477
C           -0.52755   0.72019   0.18374
C            0.35103   1.79302   0.37874
O            1.66998   1.72326  -0.16669
N           -1.84562   0.89613  -0.13313
N           -2.37699  -0.30909  -0.31967
N           -1.47187  -1.27465  -0.11535
H            0.62946  -2.53526   0.62806
H            1.33019  -1.17423   1.54869
H            0.05280   2.80259   0.61604
H            1.73687   2.42033  -0.83837