16
charge 0 multiplicity 2
N            1.84439  -1.27527  -0.57599
H            2.68733  -1.84566  -0.46537
H            2.09721  -0.26785  -0.59504
H            1.38381  -1.50499  -1.45942
C            0.81427  -1.43737   0.57758
C           -0.36569  -0.63388   0.25139
C           -0.49406   0.76474   0.07324
C            0.47096   1.77755   0.07505
O            1.82577   1.38397   0.10677
N           -1.81876   0.98940  -0.20081
N           -2.43003  -0.18870  -0.20058
N           -1.58134  -1.18899   0.06146
H            0.56171  -2.49478   0.64549
H            1.36516  -1.11776   1.46557
H            0.26101   2.82000  -0.11026
H            2.38488   2.15799   0.21270