Created by MolOP; FilePath==test/test.xyz; G16mem==60GB; G16nprocshared==32; RouteSection== opt=(modredundant,maxcycle=150) freq b3lyp/genecp; charge==0; frameID==0; multi==3
 OpenBabel11042322123D

 64 67  0  0  1  0  0  0  0  0999 V2000
    0.0000    0.0000    0.0000 C   0  0  0  0  0  0  0  0  0  0  0  0
    2.3079    0.0000    0.0000 C   0  0  1  0  0  3  0  0  0  0  0  0
    0.5513    1.4557    0.0000 C   0  0  0  0  0  0  0  0  0  0  0  0
   -0.5349   -0.2597    0.9125 H   0  0  0  0  0  0  0  0  0  0  0  0
    0.2857    2.0165   -0.8960 H   0  0  0  0  0  0  0  0  0  0  0  0
    0.2790    2.0381    0.8778 H   0  0  0  0  0  0  0  0  0  0  0  0
   -0.5838   -0.2460   -0.8852 H   0  0  0  0  0  0  0  0  0  0  0  0
    2.0475    1.2597    0.0087 N   0  0  2  0  0  0  0  0  0  0  0  0
    1.2433   -0.8627   -0.0395 O   0  0  0  0  0  0  0  0  0  0  0  0
    6.7610    0.7543    1.4575 C   0  0  0  0  0  0  0  0  0  0  0  0
    4.6964    0.2786    0.5422 C   0  0  2  0  0  3  0  0  0  0  0  0
    5.9437    2.0585    1.2440 C   0  0  0  0  0  0  0  0  0  0  0  0
    7.6403    0.6982    0.8161 H   0  0  0  0  0  0  0  0  0  0  0  0
    5.6778    2.5494    2.1816 H   0  0  0  0  0  0  0  0  0  0  0  0
    6.4487    2.7576    0.5724 H   0  0  0  0  0  0  0  0  0  0  0  0
    7.0146    0.5539    2.4968 H   0  0  0  0  0  0  0  0  0  0  0  0
    4.6650    1.5658    0.5954 N   0  0  1  0  0  0  0  0  0  0  0  0
    5.8235   -0.3435    1.0101 O   0  0  0  0  0  0  0  0  0  0  0  0
    3.6697   -0.6280   -0.0769 C   0  0  0  0  0  0  0  0  0  0  0  0
    3.3289    2.6655   -0.1569 Cu  0  0  2  0  0  0  0  0  0  0  0  0
    3.6696   -2.0048    0.6188 C   0  0  0  0  0  0  0  0  0  0  0  0
    3.4180   -1.9015    1.6779 H   0  0  0  0  0  0  0  0  0  0  0  0
    2.9271   -2.6438    0.1398 H   0  0  0  0  0  0  0  0  0  0  0  0
    4.6621   -2.4478    0.5327 H   0  0  0  0  0  0  0  0  0  0  0  0
    4.0327   -0.7763   -1.5921 C   0  0  0  0  0  0  0  0  0  0  0  0
    5.0112   -1.2574   -1.6732 H   0  0  0  0  0  0  0  0  0  0  0  0
    3.2764   -1.3981   -2.0784 H   0  0  0  0  0  0  0  0  0  0  0  0
    4.0724    0.2083   -2.0671 H   0  0  0  0  0  0  0  0  0  0  0  0
    1.9842    4.3604    0.6626 Cl  0  0  0  0  0  0  0  0  0  0  0  0
    4.2484    3.3748   -1.6480 C   0  0  0  0  0  0  0  0  0  0  0  0
    3.5124    4.1385   -2.5904 C   0  0  0  0  0  0  0  0  0  0  0  0
    5.3519    2.6152   -2.2140 C   0  0  0  0  0  0  0  0  0  0  0  0
    3.8339    4.2127   -3.9609 C   0  0  0  0  0  0  0  0  0  0  0  0
    2.6710    4.7223   -2.2269 H   0  0  0  0  0  0  0  0  0  0  0  0
    5.6799    2.6489   -3.5359 C   0  0  0  0  0  0  0  0  0  0  0  0
    5.9481    2.0046   -1.5482 H   0  0  0  0  0  0  0  0  0  0  0  0
    3.0873    5.0073   -4.8772 C   0  0  0  0  0  0  0  0  0  0  0  0
    4.9432    3.4524   -4.4655 C   0  0  0  0  0  0  0  0  0  0  0  0
    6.5053    2.0527   -3.9155 H   0  0  0  0  0  0  0  0  0  0  0  0
    3.4207    5.0471   -6.2141 C   0  0  0  0  0  0  0  0  0  0  0  0
    2.2528    5.5864   -4.4971 H   0  0  0  0  0  0  0  0  0  0  0  0
    5.2593    3.5132   -5.8370 C   0  0  0  0  0  0  0  0  0  0  0  0
    4.5148    4.2961   -6.7031 C   0  0  0  0  0  0  0  0  0  0  0  0
    2.8455    5.6595   -6.8989 H   0  0  0  0  0  0  0  0  0  0  0  0
    6.1021    2.9375   -6.2056 H   0  0  0  0  0  0  0  0  0  0  0  0
    4.7683    4.3385   -7.7555 H   0  0  0  0  0  0  0  0  0  0  0  0
    5.0603    4.8660   -0.4779 C   0  0  0  0  0  3  0  0  0  0  0  0
    5.2401    5.3168    0.9564 C   0  0  0  0  0  0  0  0  0  0  0  0
    3.9207    5.6502   -1.0608 C   0  0  0  0  0  0  0  0  0  0  0  0
    6.0856    6.0274    1.0545 H   0  0  0  0  0  0  0  0  0  0  0  0
    4.3428    5.8505    1.3136 H   0  0  0  0  0  0  0  0  0  0  0  0
    5.4173    4.4179    1.5643 H   0  0  0  0  0  0  0  0  0  0  0  0
    4.0932    6.7449   -1.0563 H   0  0  0  0  0  0  0  0  0  0  0  0
    3.0549    5.4950   -0.3492 H   0  0  0  0  0  0  0  0  0  0  0  0
    3.5962    5.3194   -2.0490 H   0  0  0  0  0  0  0  0  0  0  0  0
    6.3059    4.9949   -1.1643 N   0  0  0  0  0  0  0  0  0  0  0  0
    6.9195    6.2619   -0.9826 C   0  0  0  0  0  0  0  0  0  0  0  0
    7.1559    3.8670   -1.1232 C   0  0  0  0  0  0  0  0  0  0  0  0
    7.9782    6.2575   -0.7307 H   0  0  0  0  0  0  0  0  0  0  0  0
    6.3742    6.8069   -0.1690 H   0  0  0  0  0  0  0  0  0  0  0  0
    6.7737    6.8501   -1.9312 H   0  0  0  0  0  0  0  0  0  0  0  0
    7.1176    3.3626   -2.1246 H   0  0  0  0  0  0  0  0  0  0  0  0
    8.2195    4.0676   -0.9253 H   0  0  0  0  0  0  0  0  0  0  0  0
    6.7861    3.1553   -0.3418 H   0  0  0  0  0  0  0  0  0  0  0  0
  1  3  1  0  0  0  0
  1  4  1  0  0  0  0
  2  9  1  6  0  0  0
  2  8  1  0  0  0  0
  3  6  1  0  0  0  0
  5  3  1  0  0  0  0
  7  1  1  0  0  0  0
  8  3  1  6  0  0  0
  9  1  1  0  0  0  0
 10 16  1  0  0  0  0
 11 17  1  0  0  0  0
 11 18  1  6  0  0  0
 12 10  1  0  0  0  0
 12 14  1  0  0  0  0
 13 10  1  0  0  0  0
 15 12  1  0  0  0  0
 17 12  1  6  0  0  0
 18 10  1  0  0  0  0
 19  2  1  0  0  0  0
 19 11  1  0  0  0  0
 19 21  1  0  0  0  0
 20  8  1  0  0  0  0
 20 17  1  0  0  0  0
 20 29  1  1  0  0  0
 21 22  1  0  0  0  0
 23 21  1  0  0  0  0
 24 21  1  0  0  0  0
 25 19  1  0  0  0  0
 26 25  1  0  0  0  0
 27 25  1  0  0  0  0
 28 25  1  0  0  0  0
 30 20  1  0  0  0  0
 31 34  1  0  0  0  0
 31 30  2  0  0  0  0
 32 30  1  0  0  0  0
 32 36  1  0  0  0  0
 33 31  1  0  0  0  0
 35 32  2  0  0  0  0
 37 41  1  0  0  0  0
 37 33  2  0  0  0  0
 38 33  1  0  0  0  0
 38 35  1  0  0  0  0
 39 35  1  0  0  0  0
 40 37  1  0  0  0  0
 42 38  2  0  0  0  0
 43 40  2  0  0  0  0
 43 42  1  0  0  0  0
 44 40  1  0  0  0  0
 45 42  1  0  0  0  0
 46 43  1  0  0  0  0
 47 48  1  0  0  0  0
 48 50  1  0  0  0  0
 48 51  1  0  0  0  0
 48 52  1  0  0  0  0
 49 53  1  0  0  0  0
 49 47  1  0  0  0  0
 49 54  1  0  0  0  0
 55 49  1  0  0  0  0
 56 58  1  0  0  0  0
 56 57  1  0  0  0  0
 56 47  1  0  0  0  0
 57 59  1  0  0  0  0
 57 60  1  0  0  0  0
 58 63  1  0  0  0  0
 58 64  1  0  0  0  0
 61 57  1  0  0  0  0
 62 58  1  0  0  0  0
M  END
$$$$
