12
charge -1 multiplicity 1
O           -2.47909  -1.55526  -0.52893
C           -1.24170  -1.61632   0.88144
C           -0.60869  -0.16907  -0.03689
C           -1.27214   1.04120   0.05524
N           -0.33400   2.02545   0.03043
N            0.93036   1.55333  -0.07499
C            0.76704   0.21403  -0.05782
C            1.91211  -0.62953  -0.08460
C            2.89731  -1.32431  -0.06845
H           -2.33383   1.23855   0.15126
H           -0.46895   3.02755   0.30043
H            3.73739  -1.97153  -0.04185