13
charge 0 multiplicity 2
C            2.53166  -0.96426   0.00002
C            1.29049  -0.13380  -0.00000
N            1.38764   1.18640  -0.00003
O            0.08342   1.73192   0.00001
C           -0.75953   0.69352  -0.00001
C           -0.07864  -0.49705  -0.00003
N           -1.07602  -1.45345   0.00002
C           -2.26013  -0.75337  -0.00006
N           -2.10910   0.56171   0.00005
H            2.57365  -1.60971  -0.88384
H            3.40843  -0.31441  -0.00009
H            2.57375  -1.60953   0.88401
H           -0.98401  -2.45444  -0.00002