13
charge 0 multiplicity 2
C           -2.53681  -0.79060   0.10431
C           -1.06320  -0.54758  -0.09749
N           -0.18549  -1.45740  -0.13035
N            1.10626  -1.17534   0.21814
C            1.65876   0.13755   0.09375
O            2.85981   0.26949  -0.01984
N            0.71572   1.12554   0.07055
C           -0.60059   0.98149  -0.09315
O           -1.51718   1.77459  -0.06163
H           -3.08908  -0.20564  -0.66093
H           -2.71764  -1.86556   0.00003
H           -2.90153  -0.45857   1.10033
H            1.76280  -1.95753  -0.94054