15
charge 0 multiplicity 2
O           -2.33947   0.34064  -0.43203
C           -1.51040  -0.57798   0.31102
C           -0.65066  -1.50323  -0.47793
N            0.65392  -1.27465   0.33046
H            0.79548  -1.99652   1.03595
C            1.88117  -0.77389  -0.23046
C            1.86082   0.55907  -0.27960
C            0.54409   1.06015   0.19911
O            0.10180   2.20581   0.08230
C           -0.15870  -0.08868   0.73246
H           -1.92058   1.20917  -0.42187
H           -2.17922  -1.03233   1.03406
H           -0.46628  -1.42207  -1.54095
H            2.67058  -1.46671  -0.47695
H            2.62604   1.20691  -0.67326