15
charge 0 multiplicity 2
O           -2.31438   0.26047  -0.37216
C           -1.49779  -0.63432   0.30331
C           -0.56960  -1.49067  -0.58886
N            0.67809  -1.25763   0.32117
H            0.81275  -2.00340   1.00069
C            1.93067  -0.70862  -0.20205
C            1.83924   0.62633  -0.23459
C            0.48048   1.06409   0.21521
O           -0.03578   2.18063   0.04215
C           -0.15090  -0.09778   0.74584
H           -1.84644   1.10876  -0.45923
H           -2.07714  -1.18018   1.04726
H           -0.36161  -1.11681  -1.58867
H            2.73544  -1.38747  -0.43552
H            2.59909   1.29956  -0.60583