15
charge 0 multiplicity 2
C           -3.07172  -0.62619  -0.01122
N           -1.64543  -0.83823   0.07725
C           -0.88324   0.22478   0.00404
N           -1.30158   1.51478  -0.25529
H           -0.61211   2.26086   0.34613
H           -2.28207   1.78059   0.91764
C            0.54458   0.02651  -0.00667
N            1.42885   1.05243   0.02986
C            2.58420   0.41154   0.02777
N            2.44139  -0.98996  -0.00830
N            1.17353  -1.22950  -0.03144
H           -3.47024  -0.09833   0.87422
H           -3.32967  -0.02572  -0.90162
H           -3.58151  -1.58950  -0.05951
H            3.55544   0.88565   0.05504