16
charge -1 multiplicity 1
C           -1.55187   1.49004  -0.01853
C           -1.03734   0.07578  -0.00223
C           -1.83701  -0.91800   0.71410
N           -1.83978  -0.91342  -0.74844
C            0.41180   0.00369  -0.03834
N            0.93507   1.10278   0.08099
C            2.19685   0.54339   0.04108
N            2.48357  -0.75350  -0.02907
N            1.22560  -1.02304  -0.09355
H           -2.64533   1.52374   0.12335
H           -1.06132   2.06666   0.77100
H           -1.30465   1.96339  -0.97564
H           -1.32343  -1.76529   1.12355
H           -2.72886  -0.59342   1.24578
H           -2.68930  -0.44137  -1.04305
H            3.02718   1.18714   0.10901