11
charge 0 multiplicity 2
C           -2.18163   0.07297   0.00000
N           -1.42721   1.17040  -0.00000
N           -0.17797   0.64127  -0.00000
C            1.01952   1.27165  -0.00000
N            2.12335   0.57449   0.00000
C            1.94508  -0.75546   0.00000
N            0.88125  -1.47797  -0.00000
C           -0.25717  -0.76260  -0.00000
N           -1.53023  -1.11733  -0.00000
H           -3.25868   0.14870  -0.00000
H            1.01965   2.35600  -0.00000