11
charge 0 multiplicity 2
C           -2.18200   0.06904   0.00001
N           -1.43377   1.16732  -0.00000
N           -0.18165   0.63984  -0.00000
C            1.01140   1.27620   0.00000
N            2.12145   0.57806   0.00000
C            1.95290  -0.74925   0.00000
N            0.89499  -1.47284  -0.00000
C           -0.25953  -0.76739  -0.00000
N           -1.52706  -1.12262  -0.00000
H           -3.25923   0.13996   0.00000
H            1.00497   2.36004  -0.00000