11
charge 0 multiplicity 2
C           -2.18112   0.06967  -0.00001
N           -1.43378   1.16762   0.00000
N           -0.18149   0.63952   0.00000
C            1.01056   1.27628  -0.00000
N            2.12107   0.57912  -0.00000
C            1.95257  -0.74883  -0.00000
N            0.89498  -1.47356   0.00000
C           -0.25986  -0.76833   0.00000
N           -1.52627  -1.12306   0.00000
H           -3.25836   0.13974  -0.00000
H            1.00392   2.36010   0.00000