14
charge -1 multiplicity 1
C            2.67590   0.74129  -0.48109
N            1.81937   0.29694   0.67569
C            0.22414   0.53550   0.26958
C            0.89336  -0.97570   0.55998
C            0.21685  -1.83494  -0.54410
C           -1.20501  -1.10055  -0.58713
C           -2.92159  -0.25655   0.44469
O           -2.48403   1.41408  -0.33572
H            2.08246   0.49098  -1.43718
H            2.69634   1.85390  -0.34877
H            3.79437   0.36855  -0.46924
H           -0.58961   1.06215   1.17313
H           -0.01606   0.77944  -0.95513
H           -0.13276  -0.60052   2.02155