12
charge 0 multiplicity 2
C            2.52344  -0.95356   0.00000
C            1.28068  -0.12848  -0.00001
N            1.36358   1.19477  -0.00004
O            0.04714   1.73339   0.00001
C           -0.77388   0.68636   0.00000
C           -0.08740  -0.48248   0.00000
O           -1.00440  -1.49631   0.00007
C           -2.19422  -0.81565  -0.00015
N           -2.12862   0.48609   0.00008
H            2.56148  -1.59909  -0.88311
H            3.39858  -0.30185  -0.00010
H            2.56157  -1.59891   0.88324