11
charge 0 multiplicity 2
N            0.24880   2.18181  -0.23400
C            0.57506   0.98596  -0.01235
N            1.85939   0.46542   0.24884
C            1.99048  -0.77123   0.12731
N            1.05400  -1.75337  -0.16199
N           -0.15631  -1.35287  -0.14671
N           -0.42424  -0.04098   0.00557
C           -1.82482   0.31266   0.13292
O           -2.70619  -0.48140   0.04721
H            1.05552   2.79872  -0.16340
H           -1.92169   1.38802   0.31645