11
charge 0 multiplicity 2
N            0.22832   2.19802  -0.13925
C            0.57199   0.99816  -0.00906
N            1.87860   0.46266   0.13899
C            2.00547  -0.76346   0.06967
N            1.05469  -1.75948  -0.10277
N           -0.15782  -1.35970  -0.07209
N           -0.42184  -0.04250   0.01883
C           -1.83205   0.30589   0.11113
O           -2.70528  -0.49327   0.00115
H            1.03495   2.81630  -0.10948
H           -1.93889   1.39334   0.16391