11
charge 0 multiplicity 2
N            0.24153   2.19953  -0.13451
C            0.57525   0.99186  -0.00884
N            1.87662   0.46513   0.13982
C            2.00089  -0.77459   0.07395
N            1.04333  -1.76962  -0.09296
N           -0.16040  -1.35851  -0.08278
N           -0.42371  -0.03756   0.00419
C           -1.82974   0.31616   0.08120
O           -2.70508  -0.48744   0.02299
H            1.05733   2.80658  -0.09415
H           -1.93679   1.39959   0.19603