11
charge 0 multiplicity 2
N            0.24770   2.18281  -0.22557
C            0.57601   0.98822  -0.01278
N            1.86197   0.46575   0.24043
C            1.99253  -0.77292   0.12422
N            1.05385  -1.75520  -0.15784
N           -0.15737  -1.34954  -0.14174
N           -0.42278  -0.04352   0.00555
C           -1.82808   0.31255   0.12999
O           -2.70700  -0.48275   0.04558
H            1.05202   2.80267  -0.15971
H           -1.92244   1.39008   0.30068