11
charge 0 multiplicity 2
N            0.24129   2.18797  -0.19861
C            0.57459   0.98855  -0.01124
N            1.86635   0.46852   0.21079
C            1.99576  -0.77035   0.10795
N            1.05256  -1.75914  -0.13765
N           -0.15629  -1.35426  -0.12397
N           -0.42329  -0.04172   0.00435
C           -1.82758   0.31246   0.11385
O           -2.70539  -0.48616   0.03995
H            1.04916   2.80419  -0.13842
H           -1.92707   1.39155   0.27110