16
charge 0 multiplicity 2
C           -2.73840  -0.28614   0.61844
C           -1.71770   0.11160  -0.42476
C           -0.95142   1.48394  -0.23372
C            0.30507   0.63956  -0.08774
C            1.62927   0.22247   0.08732
N            2.74024   0.95094   0.32514
N            1.61211  -1.16553   0.00675
N            0.39108  -1.60914  -0.19823
N           -0.36611  -0.50352  -0.25721
H           -2.34616  -0.13061   1.62620
H           -3.64235   0.31574   0.49675
H           -3.01039  -1.33837   0.51102
H           -2.08983  -0.03955  -1.43955
H           -0.97328   2.14656  -1.09889
H           -1.24354   2.03608   0.66016
H            3.50334   0.27235   0.35197