16
charge 0 multiplicity 2
C           -2.74186  -0.28123   0.61375
C           -1.71995   0.11575  -0.42665
C           -0.94790   1.48341  -0.23035
C            0.30557   0.63523  -0.08317
C            1.64719   0.22441   0.09573
N            2.72756   0.95835   0.30440
N            1.60309  -1.18032   0.01358
N            0.39417  -1.61817  -0.20211
N           -0.36643  -0.50149  -0.25363
H           -2.34979  -0.12836   1.62151
H           -3.64339   0.32394   0.49242
H           -3.01671  -1.33191   0.50356
H           -2.08433  -0.03458  -1.44346
H           -0.95809   2.14734  -1.09407
H           -1.23742   2.03415   0.66472
H            3.52275   0.31543   0.40372