16
charge 0 multiplicity 2
C           -2.75179  -0.27924   0.60546
C           -1.72175   0.11523  -0.42834
C           -0.94852   1.48225  -0.22749
C            0.30161   0.62906  -0.08159
C            1.64730   0.23150   0.09750
N            2.72760   0.96523   0.29995
N            1.60886  -1.18223   0.01234
N            0.40969  -1.62445  -0.19513
N           -0.37041  -0.50519  -0.24588
H           -2.36364  -0.13186   1.61585
H           -3.64993   0.33150   0.48269
H           -3.03292  -1.32819   0.49106
H           -2.07912  -0.03483  -1.44804
H           -0.95727   2.14922  -1.08950
H           -1.23884   2.03005   0.66960
H            3.53046   0.33783   0.38614