12
charge -1 multiplicity 1
F            2.68217  -1.07747  -0.15427
C            1.50692  -0.36148  -0.07287
C            0.28954  -1.01453  -0.03878
C           -0.86131  -0.23554  -0.11114
C           -2.29421  -0.99007   0.87987
O           -3.22866  -0.18002  -0.55560
C           -0.69920   1.15226   0.00195
N            0.48284   1.78734   0.15476
C            1.58341   1.02216   0.07337
H            0.20051  -2.10093   0.15659
H           -1.59200   1.77270   0.02756
H            2.55051   1.51739   0.17138