14
charge 1 multiplicity 1
C           -1.87262   1.42263   0.22476
C           -1.03996   0.20558   0.00645
C           -1.73485  -1.10671  -0.59379
C            1.28236  -1.05526   0.00858
N            2.47153  -0.57741   0.21681
C            2.12550   0.72741   0.05974
C            1.15124   1.40107  -0.37126
C            0.33057   0.19760  -0.20727
N           -1.63641  -1.19714   0.60715
H           -1.87164   1.68111   1.28839
H           -2.90540   1.26703  -0.08614
H           -1.43916   2.26104  -0.32444
H           -2.11187  -1.43954  -1.55379
H            1.02868  -2.10163   0.14506