14
charge 1 multiplicity 1
C           -1.87875   1.42046   0.22032
C           -1.04110   0.20598   0.00696
C           -1.73296  -1.10961  -0.59398
C            1.28422  -1.05352   0.01164
N            2.47488  -0.57756   0.21191
C            2.12945   0.72995   0.05836
C            1.15164   1.40130  -0.36691
C            0.33003   0.19874  -0.20218
N           -1.63768  -1.19479   0.60765
H           -1.93352   1.64226   1.29112
H           -2.89509   1.28042  -0.14813
H           -1.41449   2.27335  -0.27803
H           -2.10317  -1.44917  -1.55419
H            1.03070  -2.10020   0.14707