14
charge 1 multiplicity 1
C           -1.88429   1.41692   0.22544
C           -1.03976   0.20921   0.00475
C           -1.73520  -1.10539  -0.59457
C            1.28180  -1.05107   0.01221
N            2.47359  -0.57976   0.21420
C            2.13597   0.73246   0.06018
C            1.15652   1.39541  -0.36947
C            0.33062   0.20175  -0.20847
N           -1.63264  -1.19822   0.60601
H           -1.99727   1.59045   1.30090
H           -2.88017   1.29813  -0.20298
H           -1.39358   2.28892  -0.20999
H           -2.11173  -1.43108  -1.55695
H            1.02212  -2.09632   0.14714