14
charge 1 multiplicity 1
C           -1.88389   1.41719   0.22516
C           -1.03945   0.20973   0.00276
C           -1.73727  -1.10487  -0.59259
C            1.28167  -1.05134   0.00937
N            2.47308  -0.58023   0.21409
C            2.13589   0.73197   0.06253
C            1.15746   1.39552  -0.36851
C            0.33076   0.20214  -0.20989
N           -1.63096  -1.19906   0.60747
H           -1.99776   1.58888   1.30082
H           -2.87945   1.29967  -0.20436
H           -1.39241   2.28974  -0.20829
H           -2.11857  -1.42835  -1.55387
H            1.02235  -2.09696   0.14181