14
charge 1 multiplicity 1
C           -1.85553   1.42842   0.25462
C           -1.03804   0.20588   0.00407
C           -1.75856  -1.08008  -0.59382
C            1.27977  -1.05707   0.00368
N            2.46404  -0.58029   0.23327
C            2.12410   0.73747   0.07655
C            1.15317   1.37671  -0.40158
C            0.32999   0.18994  -0.24299
N           -1.62080  -1.21590   0.60229
H           -1.63944   1.82455   1.25092
H           -2.92137   1.21519   0.18741
H           -1.58983   2.20048  -0.47351
H           -2.17364  -1.37351  -1.55053
H            1.01225  -2.10111   0.13367