15
charge 0 multiplicity 2
N            3.35596  -0.69797   0.00683
C            2.24977  -0.33563  -0.00140
C            0.91170   0.07314   0.00329
C            0.45444   1.38057  -0.01394
N           -0.22168   2.34211  -0.03604
C           -0.22093  -0.89304   0.03745
C           -1.33689  -0.70000   1.09911
N           -2.19203  -0.10898  -0.02485
H           -3.19439  -0.29955  -0.02488
H           -2.00067   0.91138  -0.07846
C           -1.31614  -0.81736  -1.06110
H           -1.81401  -1.61732   1.44808
H           -1.14357  -0.00577   1.91355
H           -1.10555  -0.21449  -1.94121
H           -1.78922  -1.76644  -1.31924