15
charge 0 multiplicity 2
N            1.97836  -2.28765  -0.15349
C            1.50849  -1.23200  -0.01940
C            0.84453  -0.00252   0.14545
C            1.52950   1.21636  -0.01422
N            2.02538   2.26085  -0.14265
C           -0.53663   0.01093   0.45592
C           -1.52846   1.08981   0.18727
N           -2.45229   0.00594  -0.46303
H           -3.45333   0.01060  -0.21315
H           -2.35513  -0.00697  -1.47829
C           -1.53677  -1.06749   0.21534
H           -2.10134   1.49057   1.03614
H           -1.25385   1.90247  -0.48881
H           -1.26869  -1.89945  -0.43908
H           -2.11169  -1.44177   1.07524