15
charge 0 multiplicity 2
N            1.98017  -2.28875  -0.15080
C            1.50689  -1.23378  -0.02344
C            0.84501  -0.00310   0.14059
C            1.53379   1.21462  -0.01454
N            2.03269   2.25835  -0.13636
C           -0.53640   0.01284   0.44903
C           -1.52764   1.09149   0.17960
N           -2.46002   0.00629  -0.45549
H           -3.45808   0.01419  -0.19367
H           -2.37578  -0.01163  -1.47157
C           -1.53897  -1.06485   0.21779
H           -2.09262   1.50086   1.02985
H           -1.25640   1.89847  -0.50461
H           -1.27532  -1.89778  -0.43739
H           -2.10776  -1.43873   1.08191