15
charge 0 multiplicity 2
N            1.98458  -2.28814  -0.14834
C            1.50914  -1.23383  -0.02296
C            0.84680  -0.00294   0.13762
C            1.53737   1.21429  -0.01487
N            2.03533   2.25875  -0.13308
C           -0.53621   0.01270   0.43890
C           -1.52914   1.09147   0.17589
N           -2.46749   0.00570  -0.44685
H           -3.46106   0.01503  -0.16899
H           -2.40084  -0.01362  -1.46411
C           -1.54032  -1.06480   0.21508
H           -2.08563   1.50646   1.02953
H           -1.26353   1.89602  -0.51353
H           -1.28077  -1.89538  -0.44518
H           -2.10094  -1.44414   1.08224