15
charge 0 multiplicity 2
N            2.00011  -2.28333  -0.14064
C            1.51710  -1.23153  -0.02283
C            0.84909  -0.00233   0.12917
C            1.54050   1.21566  -0.01565
N            2.03854   2.26082  -0.12534
C           -0.53591   0.01008   0.41517
C           -1.53242   1.08933   0.16880
N           -2.48527   0.00327  -0.42592
H           -3.46879   0.01407  -0.11398
H           -2.45531  -0.01619  -1.44477
C           -1.54214  -1.06718   0.20622
H           -2.06971   1.51265   1.03158
H           -1.28087   1.89031  -0.53020
H           -1.29384  -1.89219  -0.46598
H           -2.08248  -1.45811   1.08148