15
charge 0 multiplicity 2
N            2.01950  -2.27627  -0.13167
C            1.52750  -1.22768  -0.02270
C            0.85048  -0.00166   0.11925
C            1.54168   1.21776  -0.01651
N            2.04036   2.26340  -0.11678
C           -0.53622   0.00595   0.38774
C           -1.53664   1.08593   0.16324
N           -2.50255   0.00018  -0.40545
H           -3.47623   0.01213  -0.06288
H           -2.50534  -0.01855  -1.42469
C           -1.54497  -1.07070   0.19744
H           -2.05419   1.51291   1.03733
H           -1.30101   1.88639  -0.54197
H           -1.31103  -1.89277  -0.48400
H           -2.06437  -1.46895   1.08272