15
charge 0 multiplicity 2
N            2.05408  -2.26367  -0.11495
C            1.54524  -1.22171  -0.02183
C            0.85345  -0.00087   0.10095
C            1.54492   1.22095  -0.01692
N            2.04407   2.26757  -0.10047
C           -0.53682  -0.00088   0.32996
C           -1.54439   1.07986   0.15326
N           -2.53278  -0.00490  -0.36815
H           -3.48688   0.00861   0.02806
H           -2.59249  -0.02269  -1.38547
C           -1.55132  -1.07608   0.18323
H           -2.02323   1.50902   1.05034
H           -1.34134   1.88237  -0.55988
H           -1.34885  -1.89758  -0.50964
H           -2.03129  -1.48033   1.08960