15
charge 0 multiplicity 2
N            2.11195  -2.24187  -0.07676
C            1.57455  -1.21197  -0.01957
C            0.85740  -0.00021   0.05962
C            1.54879   1.22633  -0.01779
N            2.04943   2.27400  -0.06502
C           -0.53721  -0.01293   0.20108
C           -1.55548   1.06807   0.13359
N           -2.58357  -0.01259  -0.29032
H           -3.48865   0.00295   0.21165
H           -2.75644  -0.02749  -1.29433
C           -1.56134  -1.08351   0.15388
H           -1.94875   1.49316   1.07778
H           -1.42505   1.88003  -0.58601
H           -1.43046  -1.90897  -0.55244
H           -1.95563  -1.49115   1.10317