15
charge 0 multiplicity 2
N            3.35199  -0.70832   0.02401
C            2.25573  -0.32471   0.02420
C            0.92521   0.11492   0.05930
C            0.44283   1.40544  -0.10703
N           -0.28376   2.30453  -0.30910
C           -0.23199  -0.72292   0.29044
C           -1.40926  -0.22609   1.10506
N           -2.20272  -0.25704  -0.21417
H           -3.18781  -0.53716  -0.19526
H           -2.08950   0.65450  -0.68339
C           -1.17434  -1.24452  -0.78820
H           -1.84313  -0.95972   1.78655
H           -1.32802   0.75973   1.55578
H           -0.89733  -1.04714  -1.81956
H           -1.56190  -2.25716  -0.65200