15
charge 0 multiplicity 2
N            2.14027  -2.23158  -0.00662
C            1.59016  -1.20743  -0.01817
C            0.85943   0.00010  -0.02338
C            1.55770   1.22575  -0.01749
N            2.06721   2.26957   0.00369
C           -0.54175  -0.01478  -0.05944
C           -1.56093   1.06210   0.10444
N           -2.63153  -0.01524  -0.16277
H           -3.43973  -0.00028   0.47725
H           -2.95641  -0.02904  -1.12764
C           -1.56178  -1.08148   0.12390
H           -1.76493   1.43205   1.13131
H           -1.58231   1.90877  -0.58354
H           -1.57945  -1.94051  -0.55125
H           -1.76571  -1.43588   1.15458