15
charge 0 multiplicity 2
N            2.08558  -2.26400  -0.00514
C            1.57001  -1.22232  -0.01639
C            0.86882  -0.00067  -0.02037
C            1.56786   1.22307  -0.01453
N            2.08342   2.26495  -0.00307
C           -0.53647  -0.00033  -0.07658
C           -1.54966   1.07667   0.11817
N           -2.62750  -0.00047  -0.16532
H           -3.44578   0.00052   0.45274
H           -2.91813  -0.00158  -1.14125
C           -1.55141  -1.07659   0.12317
H           -1.73709   1.40803   1.15686
H           -1.58147   1.93748  -0.55016
H           -1.58364  -1.93727  -0.54562
H           -1.73923  -1.40945   1.16131