15
charge 0 multiplicity 2
N            2.07999  -2.26799  -0.00188
C            1.56915  -1.22379  -0.01508
C            0.87046  -0.00004  -0.02471
C            1.56735   1.22484  -0.01445
N            2.07553   2.27028  -0.00047
C           -0.53339  -0.00069  -0.09004
C           -1.54673   1.07368   0.11918
N           -2.62631  -0.00118  -0.16094
H           -3.44377  -0.00014   0.46185
H           -2.91842  -0.00290  -1.13662
C           -1.54666  -1.07461   0.12219
H           -1.72842   1.40618   1.16027
H           -1.58372   1.93681  -0.54691
H           -1.58314  -1.93924  -0.54204
H           -1.72807  -1.40486   1.16389