15
charge 0 multiplicity 2
N            3.24332  -0.88189  -0.04672
C            2.19466  -0.39615   0.05991
C            0.91138   0.14650   0.21496
C            0.50838   1.45209  -0.09679
N           -0.05717   2.43328  -0.39656
C           -0.28579  -0.60704   0.42776
C           -1.53926   0.00408   0.97518
N           -2.21013  -0.35717  -0.37040
H           -3.18793  -0.67125  -0.38618
H           -2.07898   0.43318  -1.00921
C           -1.08980  -1.40015  -0.58069
H           -2.02737  -0.58208   1.75714
H           -1.54500   1.06892   1.19469
H           -0.70852  -1.43225  -1.59806
H           -1.48172  -2.37201  -0.26458