15
charge 0 multiplicity 2
N            1.99899  -2.27621  -0.15746
C            1.51230  -1.22891  -0.01814
C            0.83848  -0.00389   0.14366
C            1.52271   1.21819  -0.01568
N            2.02595   2.25961  -0.13999
C           -0.53971   0.00547   0.46050
C           -1.52947   1.08389   0.19040
N           -2.45064   0.00461  -0.47455
H           -3.45844   0.01476  -0.25095
H           -2.32715  -0.00920  -1.48602
C           -1.54694  -1.06844   0.22439
H           -2.10629   1.47354   1.04159
H           -1.25444   1.90206  -0.47814
H           -1.28452  -1.91138  -0.41798
H           -2.13357  -1.42362   1.08476