12
charge -1 multiplicity 1
O           -2.54982  -1.48861  -0.56937
C           -1.31781  -1.51273   0.84991
C           -0.67060  -0.08410   0.02266
C            0.70716   0.10745  -0.10855
N            0.90255   1.48466  -0.21040
C           -0.33818   2.05831   0.07337
N           -1.29470   1.16331   0.20647
C            1.80312  -0.77659  -0.11678
C            2.83701  -1.40515   0.02836
H            1.79618   1.95598  -0.11177
H           -0.46116   3.13716   0.18093
H            3.68434  -2.04317   0.01951