15
charge 0 multiplicity 2
C           -3.94882   0.45763   0.06009
N           -2.77116  -0.34729  -0.09391
C           -1.53299   0.16725  -0.03304
N           -0.44083  -0.54824  -0.00942
H           -0.49582  -1.56618   0.00246
C            0.89106  -0.12438  -0.00597
C            1.51480   1.11998  -0.05018
N            2.83213   0.86721  -0.01760
N            3.00004  -0.47138   0.05147
N            1.83126  -1.09041   0.05277
H           -4.78894   0.14021  -0.55739
H           -4.21499   0.82211   1.05459
H           -2.88065  -1.35580  -0.07124
H           -1.44288   1.24550  -0.02877
H            1.11881   2.12207  -0.10831