15
charge 0 multiplicity 2
C           -3.95788   0.36751   0.00733
N           -2.77444  -0.31956  -0.00560
C           -1.53354   0.20306   0.00368
N           -0.44103  -0.54057  -0.00391
H           -0.51515  -1.55631  -0.00913
C            0.88352  -0.13211  -0.00170
C            1.51519   1.11433  -0.00601
N            2.82834   0.86357  -0.00159
N            2.99260  -0.48454   0.00554
N            1.82831  -1.10020   0.00513
H           -4.87022  -0.20150  -0.01218
H           -3.93547   1.44446   0.01851
H           -2.84533  -1.33076  -0.01710
H           -1.43328   1.27817   0.01665
H            1.11926   2.11820  -0.01354