15
charge 0 multiplicity 2
C           -3.95827   0.36701   0.00456
N           -2.77432  -0.31954  -0.00296
C           -1.53366   0.20352   0.00288
N           -0.44119  -0.53990  -0.00340
H           -0.51516  -1.55568  -0.00799
C            0.88357  -0.13174  -0.00127
C            1.51558   1.11442  -0.00418
N            2.82872   0.86303  -0.00054
N            2.99262  -0.48504   0.00368
N            1.82796  -1.10018   0.00341
H           -4.87032  -0.20268  -0.00624
H           -3.93580   1.44411   0.00915
H           -2.84483  -1.33076  -0.01042
H           -1.43375   1.27873   0.01139
H            1.12004   2.11846  -0.00918