15
charge 0 multiplicity 2
C           -3.89224   0.42374   0.05127
N           -2.78069  -0.35391  -0.05900
C           -1.53723   0.17189  -0.02546
N           -0.44977  -0.55637   0.00443
H           -0.51559  -1.57447   0.01715
C            0.87615  -0.13466  -0.00002
C            1.49769   1.11672  -0.03574
N            2.81352   0.87251  -0.01612
N            2.98330  -0.47092   0.02810
N            1.82215  -1.09736   0.03842
H           -4.81252  -0.06688  -0.20407
H           -3.82365   1.41966   0.44974
H           -2.88031  -1.36814  -0.05841
H           -1.45369   1.24820  -0.03726
H            1.09997   2.11787  -0.07833