15
charge 0 multiplicity 2
C           -3.95005   0.38307   0.05768
N           -2.78439  -0.33003  -0.04961
C           -1.53418   0.18986  -0.02323
N           -0.44159  -0.54465  -0.00028
H           -0.50975  -1.56105   0.00846
C            0.88427  -0.13207  -0.00150
C            1.51174   1.11510  -0.02423
N            2.82626   0.86473  -0.00811
N            2.99579  -0.48012   0.02398
N            1.83047  -1.09682   0.02840
H           -4.87346  -0.15534  -0.05368
H           -3.88609   1.44440   0.20717
H           -2.86082  -1.33957  -0.09995
H           -1.44274   1.26549  -0.02039
H            1.11626   2.11856  -0.05453