15
charge 0 multiplicity 2
C           -3.95959   0.36419   0.02152
N           -2.77325  -0.31792  -0.02118
C           -1.53391   0.20513   0.00400
N           -0.44129  -0.53888   0.00405
H           -0.51561  -1.55466   0.00562
C            0.88364  -0.13132  -0.00057
C            1.51640   1.11432  -0.01422
N            2.82959   0.86204  -0.00695
N            2.99246  -0.48561   0.00896
N            1.82729  -1.10046   0.01231
H           -4.87002  -0.20444  -0.04823
H           -3.94262   1.44045   0.07535
H           -2.84304  -1.32803  -0.07378
H           -1.43307   1.28009   0.02585
H            1.12150   2.11847  -0.02957