15
charge 0 multiplicity 2
C           -3.95759   0.36683   0.01378
N           -2.77422  -0.31856  -0.01260
C           -1.53376   0.20319   0.00468
N           -0.44082  -0.54099  -0.00161
H           -0.51523  -1.55671  -0.00443
C            0.88345  -0.13233  -0.00171
C            1.51499   1.11428  -0.01027
N            2.82816   0.86376  -0.00387
N            2.99264  -0.48426   0.00776
N            1.82853  -1.10029   0.00867
H           -4.86918  -0.20225  -0.02841
H           -3.93901   1.44323   0.04250
H           -2.84595  -1.32962  -0.04046
H           -1.43202   1.27796   0.02596
H            1.11878   2.11796  -0.02241