15
charge 0 multiplicity 2
C           -3.95749   0.36762   0.01069
N           -2.77448  -0.31921  -0.00912
C           -1.53361   0.20277   0.00422
N           -0.44085  -0.54114  -0.00329
H           -0.51511  -1.55686  -0.00763
C            0.88347  -0.13239  -0.00192
C            1.51487   1.11428  -0.00845
N            2.82804   0.86395  -0.00245
N            2.99266  -0.48413   0.00691
N            1.82863  -1.10021   0.00705
H           -4.86971  -0.20112  -0.02021
H           -3.93667   1.44423   0.03107
H           -2.84604  -1.33040  -0.02751
H           -1.43251   1.27768   0.02200
H            1.11860   2.11798  -0.01869