14
charge 0 multiplicity 2
N            2.35895  -1.07576   0.08710
H            2.25902  -1.91536  -0.49285
H            2.42810  -1.39217   1.06506
H            3.24633  -0.62956  -0.16076
C            1.24789  -0.13976  -0.14097
C            1.40920   1.26158  -0.04968
C            0.11878   1.83553   0.02148
C           -0.80953   0.76395   0.03245
C           -0.12917  -0.47617  -0.03125
N           -1.02042  -1.48759  -0.07231
N           -2.22964  -0.81577   0.01110
N           -2.13885   0.49100   0.06486
H            2.35524   1.79001  -0.06983
H           -0.10198   2.89304   0.03087