14
charge 0 multiplicity 2
N            2.35655  -1.08887   0.01159
H            2.15996  -1.83370  -0.66691
H            2.44149  -1.54161   0.93030
H            3.25846  -0.66891  -0.22359
C            1.27761  -0.09160  -0.01927
C            1.40652   1.28533  -0.00748
C            0.06493   1.84964   0.00356
C           -0.82642   0.77754   0.01039
C           -0.11159  -0.44442   0.00034
N           -0.93607  -1.47227  -0.00957
N           -2.23857  -0.86251  -0.00238
N           -2.16747   0.42681   0.00708
H            2.32597   1.85591  -0.01080
H           -0.15316   2.90729  -0.00137