14
charge 0 multiplicity 2
N            2.35618  -1.08903   0.01219
H            2.16604  -1.82953  -0.67287
H            2.43290  -1.54786   0.92864
H            3.26017  -0.66753  -0.21196
C            1.27771  -0.09145  -0.02054
C            1.40635   1.28556  -0.00736
C            0.06465   1.84985   0.00400
C           -0.82636   0.77766   0.00960
C           -0.11136  -0.44448  -0.00092
N           -0.93577  -1.47245  -0.00967
N           -2.23841  -0.86254  -0.00168
N           -2.16736   0.42656   0.00747
H            2.32545   1.85668  -0.01004
H           -0.15300   2.90760  -0.00064