14
charge 0 multiplicity 2
N            2.35577  -1.08927   0.01271
H            2.16820  -1.82816  -0.67479
H            2.42867  -1.55031   0.92840
H            3.26084  -0.66765  -0.20675
C            1.27783  -0.09124  -0.02159
C            1.40622   1.28584  -0.00742
C            0.06437   1.85011   0.00439
C           -0.82632   0.77777   0.00922
C           -0.11113  -0.44447  -0.00170
N           -0.93542  -1.47256  -0.00981
N           -2.23817  -0.86267  -0.00132
N           -2.16725   0.42632   0.00780
H            2.32498   1.85751  -0.00974
H           -0.15295   2.90792  -0.00015