14
charge 0 multiplicity 2
N            2.35588  -1.08931   0.01149
H            2.16912  -1.82576  -0.67892
H            2.42856  -1.55376   0.92545
H            3.26091  -0.66645  -0.20591
C            1.27763  -0.09157  -0.01930
C            1.40658   1.28549  -0.00716
C            0.06501   1.84973   0.00361
C           -0.82627   0.77769   0.00964
C           -0.11131  -0.44445  -0.00023
N           -0.93644  -1.47226  -0.00939
N           -2.23818  -0.86230  -0.00193
N           -2.16726   0.42681   0.00713
H            2.32571   1.85658  -0.00956
H           -0.15208   2.90759  -0.00146