14
charge 0 multiplicity 2
N            2.35791  -1.08797   0.00666
H            2.25188  -1.75300  -0.76863
H            2.34740  -1.64188   0.87204
H            3.27312  -0.64033  -0.07669
C            1.27682  -0.09374  -0.01126
C            1.40705   1.28321  -0.00360
C            0.06649   1.84876   0.00203
C           -0.82594   0.77754   0.00404
C           -0.11245  -0.44556  -0.00164
N           -0.94010  -1.47208  -0.00544
N           -2.23943  -0.86067   0.00005
N           -2.16728   0.42853   0.00441
H            2.32748   1.85236  -0.00361
H           -0.14946   2.90689  -0.00024