14
charge 0 multiplicity 2
N            2.34365  -1.10877   0.07247
H            2.18796  -1.93348  -0.51727
H            2.39429  -1.44077   1.04398
H            3.24879  -0.70139  -0.17684
C            1.25838  -0.13065  -0.11308
C            1.44059   1.25384  -0.04522
C            0.13402   1.83812   0.01522
C           -0.80326   0.77957   0.03621
C           -0.13346  -0.45082  -0.02003
N           -1.02095  -1.45661  -0.06753
N           -2.25793  -0.82575   0.00210
N           -2.13917   0.48543   0.05901
H            2.38805   1.77690  -0.06524
H           -0.07590   2.89822   0.01437