14
charge 0 multiplicity 2
N            2.35843  -1.08774   0.00119
H            2.28617  -1.71292  -0.81053
H            2.31316  -1.68432   0.83622
H            3.27502  -0.63587  -0.02164
C            1.27684  -0.09368  -0.00199
C            1.40686   1.28317  -0.00098
C            0.06600   1.84905   0.00039
C           -0.82605   0.77745   0.00140
C           -0.11261  -0.44564   0.00033
N           -0.93979  -1.47217  -0.00104
N           -2.23948  -0.86123  -0.00045
N           -2.16733   0.42848   0.00069
H            2.32717   1.85255  -0.00132
H           -0.15058   2.90701  -0.00041