14
charge 0 multiplicity 2
N            2.35829  -1.08785   0.00028
H            2.29518  -1.70285  -0.82000
H            2.30320  -1.69475   0.82719
H            3.27519  -0.63611  -0.00638
C            1.27688  -0.09353  -0.00045
C            1.40680   1.28335  -0.00026
C            0.06597   1.84906   0.00009
C           -0.82609   0.77740   0.00042
C           -0.11252  -0.44562   0.00017
N           -0.93961  -1.47226  -0.00025
N           -2.23948  -0.86124  -0.00017
N           -2.16722   0.42848   0.00015
H            2.32703   1.85284  -0.00047
H           -0.15069   2.90701  -0.00011