14
charge 0 multiplicity 2
N            2.34237  -1.10628   0.03091
H            2.11518  -1.88646  -0.59557
H            2.42097  -1.49792   0.97693
H            3.24976  -0.72257  -0.24018
C            1.27650  -0.09170  -0.04753
C            1.41916   1.28103  -0.02679
C            0.07852   1.85241   0.00484
C           -0.82462   0.78040   0.03365
C           -0.11537  -0.43306   0.00512
N           -0.95100  -1.45729  -0.03162
N           -2.22744  -0.87224  -0.01375
N           -2.16334   0.43817   0.02752
H            2.34163   1.84482  -0.03497
H           -0.13689   2.91109  -0.01340