14
charge 0 multiplicity 2
N            2.34023  -1.10484   0.00953
H            2.08987  -1.86425  -0.63395
H            2.44354  -1.52721   0.94024
H            3.24393  -0.72156  -0.27456
C            1.28081  -0.08431  -0.01822
C            1.41376   1.28801  -0.01264
C            0.06563   1.85529   0.00340
C           -0.82747   0.78166   0.02629
C           -0.10984  -0.43274   0.01592
N           -0.93520  -1.46069  -0.01664
N           -2.22341  -0.87682  -0.00331
N           -2.16685   0.42631  -0.00161
H            2.32929   1.86399  -0.01674
H           -0.14744   2.91384  -0.01925