14
charge 0 multiplicity 2
N            2.34341  -1.09994   0.00119
H            2.08916  -1.85333  -0.64819
H            2.46220  -1.53401   0.92498
H            3.24293  -0.71118  -0.28956
C            1.28167  -0.08312  -0.00562
C            1.40921   1.29101  -0.01033
C            0.05996   1.85468   0.00083
C           -0.82888   0.78011   0.02322
C           -0.10728  -0.43551   0.02073
N           -0.92998  -1.46497  -0.00137
N           -2.22335  -0.87520  -0.01741
N           -2.16885   0.42174  -0.00038
H            2.32232   1.87117  -0.01438
H           -0.15331   2.91303  -0.02007