14
charge 0 multiplicity 2
N            2.34716  -1.09675   0.00337
H            2.10162  -1.84999  -0.64969
H            2.47075  -1.53423   0.92519
H            3.24398  -0.69953  -0.28502
C            1.27992  -0.08650  -0.00155
C            1.40783   1.28991  -0.01076
C            0.06209   1.85342  -0.00088
C           -0.82725   0.77947   0.02020
C           -0.10817  -0.43931   0.01639
N           -0.93349  -1.46819  -0.00816
N           -2.22825  -0.86957  -0.01196
N           -2.16744   0.42343   0.00280
H            2.32278   1.86742  -0.01605
H           -0.15148   2.91183  -0.01715