14
charge 0 multiplicity 2
N            2.35245  -1.09241   0.00151
H            2.12130  -1.84494  -0.65770
H            2.47573  -1.53369   0.92156
H            3.24680  -0.68342  -0.27865
C            1.27752  -0.09087  -0.00332
C            1.40755   1.28667  -0.00637
C            0.06605   1.85054   0.00009
C           -0.82566   0.77860   0.01568
C           -0.11055  -0.44316   0.01430
N           -0.93823  -1.47111  -0.00298
N           -2.23516  -0.86276  -0.00982
N           -2.16629   0.42683  -0.00074
H            2.32610   1.85867  -0.01136
H           -0.14887   2.90881  -0.01185