14
charge 0 multiplicity 2
N            2.35556  -1.09010   0.00605
H            2.13570  -1.84357  -0.65580
H            2.47028  -1.53079   0.92740
H            3.25070  -0.67620  -0.26406
C            1.27696  -0.09222  -0.00857
C            1.40737   1.28525  -0.00860
C            0.06692   1.84923   0.00188
C           -0.82582   0.77774   0.01450
C           -0.11161  -0.44421   0.00905
N           -0.93922  -1.47166  -0.00660
N           -2.23776  -0.86142  -0.00739
N           -2.16674   0.42799   0.00279
H            2.32732   1.85488  -0.01468
H           -0.14985   2.90722  -0.00633