13
charge -1 multiplicity 1
O           -2.73578  -1.01891  -0.18701
C           -1.53043  -0.33531  -0.07682
C           -0.29803  -0.97896  -0.00013
C            0.86584  -0.22705  -0.01095
C            2.27379  -1.00731   0.84677
O            3.23099  -0.23033  -0.60539
C            0.72526   1.16374   0.04458
N           -0.45174   1.80556   0.13291
C           -1.56367   1.05739   0.04471
H           -2.53504  -1.96069  -0.07736
H           -0.20553  -2.06956   0.20850
H            1.62397   1.77550   0.07773
H           -2.51955   1.57461   0.11097