17
charge 0 multiplicity 2
C           -1.15857   2.11009  -0.04928
C           -1.23879   0.62228  -0.02485
N           -2.30623  -0.10796  -0.32088
C           -1.88026  -1.38938  -0.14950
N           -0.62160  -1.50305   0.23470
N           -0.21864  -0.20281   0.32105
C            1.15356   0.10520   0.67555
C            2.11601  -0.23178  -0.47398
O            3.43361   0.05075  -0.17115
H           -0.40278   2.46572  -0.75538
H           -2.12769   2.50068  -0.35440
H           -0.91442   2.51666   0.93636
H           -2.50828  -2.25261  -0.30811
H            1.22108   1.16425   0.92508
H            1.42050  -0.47387   1.56059
H            2.03067  -1.28654  -0.77002
H            1.88562   0.35802  -1.37666