17
charge 0 multiplicity 2
C           -1.26693   2.08491  -0.07152
C           -1.26956   0.59553  -0.03279
N           -2.29637  -0.19113  -0.32364
C           -1.80129  -1.44465  -0.13424
N           -0.54003  -1.48969   0.25629
N           -0.20732  -0.17065   0.32783
C            1.15076   0.20795   0.66522
C            2.12500  -0.21455  -0.44779
O            3.42436   0.08101  -0.19625
H           -0.52386   2.47139  -0.77468
H           -2.25207   2.42155  -0.38962
H           -1.05451   2.51197   0.91265
H           -2.38253  -2.34126  -0.28441
H            1.18392   1.28915   0.80060
H            1.43345  -0.26781   1.60547
H            2.07138  -1.31820  -0.56266
H            1.80743   0.17021  -1.43398