17
charge 0 multiplicity 2
C           -1.30110   2.07691  -0.07735
C           -1.28126   0.58794  -0.03398
N           -2.29896  -0.21473  -0.31302
C           -1.78397  -1.46027  -0.12377
N           -0.51830  -1.48572   0.25395
N           -0.20402  -0.16167   0.31696
C            1.14928   0.23758   0.65029
C            2.13321  -0.21329  -0.44320
O            3.42985   0.08810  -0.18583
H           -0.56972   2.47172  -0.78796
H           -2.29363   2.39772  -0.38843
H           -1.08707   2.51013   0.90365
H           -2.35320  -2.36574  -0.26602
H            1.17280   1.32273   0.74976
H            1.43251  -0.20512   1.60626
H            2.08568  -1.31963  -0.52560
H            1.82582   0.14493  -1.44216