15
charge 0 multiplicity 2
O           -3.08767  -0.09399   0.02182
C           -1.89798   0.08608   0.00415
C           -1.02219   1.21418  -0.01162
C            0.28908   0.74050  -0.06034
C            0.24665  -0.66649  -0.02874
C            1.47982  -1.27957   0.00187
N            2.47568  -0.15336  -0.02520
H            3.13936  -0.21295   0.74722
H            3.02431  -0.16108  -0.88641
C            1.69403   1.19874   0.05344
O           -0.99881  -1.12751  -0.00795
H           -1.39063   2.22624  -0.01254
H            1.83409  -2.27145   0.20973
H            2.06805   1.83287  -0.75517
H            1.95040   1.67125   1.01010