15
charge 0 multiplicity 2
O           -3.08782  -0.09411   0.02154
C           -1.89828   0.08636   0.00423
C           -1.02228   1.21416  -0.01119
C            0.28904   0.74054  -0.06024
C            0.24663  -0.66669  -0.02874
C            1.48002  -1.27930   0.00332
N            2.47578  -0.15344  -0.02469
H            3.13977  -0.21247   0.74755
H            3.02428  -0.16136  -0.88602
C            1.69394   1.19907   0.05268
O           -0.99859  -1.12776  -0.00792
H           -1.39056   2.22629  -0.01202
H            1.83426  -2.27291   0.20264
H            2.06770   1.83193  -0.75713
H            1.95104   1.67276   1.00850