17
charge 0 multiplicity 2
C           -3.02261  -1.18570  -0.02623
C           -1.81464  -0.31591   0.01709
N           -0.58441  -0.67996   0.33860
C            0.14306   0.47654   0.23549
C            1.60960   0.52702   0.50078
C            2.37434  -0.46708  -0.38900
O            3.70449  -0.57483  -0.13066
N           -0.56541   1.52962  -0.13999
N           -1.81399   1.00592  -0.27015
H           -3.89644  -0.63679  -0.38226
H           -2.84995  -2.03536  -0.68956
H           -3.24114  -1.57920   0.96896
H            1.97182   1.54063   0.32179
H            1.80871   0.27536   1.54642
H            1.96034  -1.48674  -0.23429
H            2.19942  -0.27529  -1.46364
H           -2.58054   1.59768  -0.55005