16
charge -1 multiplicity 1
C           -1.63826  -1.91406  -0.03280
C           -1.13123  -0.51119  -0.03519
C           -1.87200   0.61379  -0.06343
C           -0.94324   1.78840  -0.03541
C            0.45735   1.13342  -0.02178
O            1.50130   1.75704   0.19226
N            0.25611  -0.25155  -0.07621
C            1.20543  -1.41777   0.79775
N            2.42988  -1.03608  -0.63932
H           -1.22565  -2.44819   0.82229
H           -2.73406  -1.90401  -0.03740
H           -1.30179  -2.46948  -0.91471
H           -2.95287   0.64828  -0.17813
H           -1.00933   2.42476  -0.92731
H           -1.04307   2.44614   0.83590
H            2.98615  -1.89597   0.21509