16
charge 0 multiplicity 2
C           -0.14688  -0.00118   1.81736
C            0.65871   0.30085   0.72862
N            0.68356   1.71091   0.25434
H            1.01727   2.36373   0.96726
H            1.35963   1.64853  -0.55466
H           -0.24010   2.01495  -0.06908
C            1.45453  -0.55984  -0.06954
N            2.17856   0.16760  -1.15450
O            1.57195  -1.78182   0.07207
C           -2.29445  -0.13341  -0.48007
O           -1.99367   0.95022  -0.79463
O           -2.63615  -1.20440  -0.21445
H           -0.68837   0.76562   2.35597
H           -0.17623  -1.01526   2.18500
H            3.17608   0.00536  -1.02712
H            1.94824  -0.28304  -2.03838