16
charge 0 multiplicity 2
C           -0.14974  -0.01070   1.81159
C            0.65838   0.29750   0.72576
N            0.67846   1.70838   0.25454
H            1.00417   2.36129   0.97132
H            1.36122   1.65123  -0.54941
H           -0.24462   2.00829  -0.07431
C            1.46270  -0.55770  -0.06978
N            2.18888   0.17551  -1.14966
O            1.58651  -1.77903   0.07105
C           -2.30236  -0.13370  -0.48043
O           -1.99626   0.95333  -0.77756
O           -2.65090  -1.20574  -0.22805
H           -0.69626   0.75340   2.34905
H           -0.17381  -1.02517   2.17839
H            3.18615   0.01439  -1.01889
H            1.96312  -0.27150  -2.03659