16
charge 0 multiplicity 2
C           -0.15226  -0.03427   1.80500
C            0.65481   0.28906   0.72385
N            0.66379   1.70359   0.26540
H            0.97320   2.35304   0.99229
H            1.35454   1.66190  -0.53171
H           -0.25828   1.99697  -0.07330
C            1.47365  -0.55005  -0.07372
N            2.19603   0.19872  -1.14414
O            1.61302  -1.77081   0.06100
C           -2.30789  -0.13603  -0.47925
O           -2.00946   0.95849  -0.75623
O           -2.65159  -1.21407  -0.24795
H           -0.71112   0.72101   2.34277
H           -0.16938  -1.05195   2.16319
H            3.19373   0.03941  -1.01495
H            1.97289  -0.23766  -2.03698