16
charge 0 multiplicity 2
C           -0.16421  -0.10819   1.77994
C            0.65569   0.26237   0.72352
N            0.64613   1.69074   0.30808
H            0.93114   2.32389   1.05893
H            1.34907   1.68656  -0.47906
H           -0.27715   1.97417  -0.03492
C            1.50215  -0.53811  -0.08484
N            2.22799   0.25484  -1.12061
O            1.66025  -1.75986   0.01517
C           -2.33376  -0.12714  -0.47958
O           -2.03899   0.97635  -0.72363
O           -2.67461  -1.21297  -0.28240
H           -0.74041   0.62033   2.33590
H           -0.16819  -1.13638   2.10734
H            3.22634   0.11079  -0.97896
H            2.02796  -0.16030  -2.02894