16
charge 0 multiplicity 2
C           -0.16248  -0.10691   1.78169
C            0.65565   0.26307   0.72371
N            0.64453   1.69087   0.30670
H            0.93143   2.32498   1.05604
H            1.34604   1.68583  -0.48189
H           -0.27973   1.97352  -0.03416
C            1.50177  -0.53767  -0.08480
N            2.22546   0.25501  -1.12256
O            1.66130  -1.75904   0.01631
C           -2.33291  -0.12836  -0.47934
O           -2.04022   0.97589  -0.72250
O           -2.67177  -1.21490  -0.28284
H           -0.73823   0.62212   2.33747
H           -0.16542  -1.13479   2.11006
H            3.22415   0.11259  -0.98168
H            2.02514  -0.16168  -2.03011