16
charge 0 multiplicity 2
C           -0.15019   0.06395   1.82048
C            0.65989   0.32395   0.72739
N            0.70036   1.71808   0.21227
H            1.04825   2.38783   0.90138
H            1.36386   1.62142  -0.60278
H           -0.22339   2.02070  -0.11220
C            1.43579  -0.56748  -0.05579
N            2.16436   0.12267  -1.16093
O            1.53583  -1.78784   0.11420
C           -2.27517  -0.14309  -0.47756
O           -1.98910   0.93763  -0.81422
O           -2.60593  -1.21157  -0.19032
H           -0.67370   0.85322   2.34586
H           -0.20247  -0.94183   2.20868
H            3.16048  -0.04693  -1.03368
H            1.92547  -0.34946  -2.03104