15
charge 0 multiplicity 2
C            2.84124  -0.36767  -0.00001
N            1.64932   0.46088  -0.00002
C            0.50793  -0.09234   0.00000
N            0.20955  -1.45152   0.00002
C           -1.03671  -1.77513   0.00001
N           -2.13186  -0.92731  -0.00002
N           -1.88259   0.33191  -0.00001
N           -0.63373   0.75965   0.00003
C           -0.44857   2.20417   0.00000
H            3.44765  -0.12125   0.87944
H            2.63725  -1.44329  -0.00037
H            3.44804  -0.12071  -0.87904
H           -1.43836   2.65831  -0.00001
H            0.12362   2.49879   0.88247
H            0.12362   2.49875  -0.88248