15
charge 0 multiplicity 2
C            2.85117  -0.36714  -0.00000
N            1.65987   0.46330  -0.00002
C            0.52251  -0.08216  -0.00000
N            0.19701  -1.44905   0.00002
C           -1.02003  -1.74585   0.00001
N           -2.13693  -0.94962  -0.00001
N           -1.88302   0.31840  -0.00001
N           -0.63935   0.75548   0.00001
C           -0.46563   2.20594   0.00001
H            3.45293  -0.12255   0.87957
H            2.63640  -1.43970  -0.00032
H            3.45326  -0.12208  -0.87921
H           -1.45677   2.65132   0.00002
H            0.10150   2.49934   0.88331
H            0.10149   2.49934  -0.88330