17
charge 0 multiplicity 2
C           -2.53266  -0.80275   0.45212
C           -1.48036  -0.11272  -0.38971
N           -1.34104   1.37334  -0.03512
H           -1.85347   1.95433  -0.69961
H           -1.77625   1.52468   0.88329
C            0.11158   1.66665  -0.01867
C            0.83590   0.45679  -0.02134
C            2.27556   0.40767   0.14141
O            2.97560  -0.59160   0.14498
C           -0.04359  -0.66743  -0.18403
O            0.14048  -1.87516  -0.21573
H           -2.31667  -0.68507   1.51830
H           -3.54483  -0.44527   0.24370
H           -2.48363  -1.86939   0.22676
H           -1.72242  -0.15542  -1.45466
H            0.41610   2.69663  -0.05676
H            2.74115   1.41089   0.27211