17
charge 0 multiplicity 2
C           -2.46044  -0.80909   0.57388
C           -1.48841  -0.12536  -0.37013
N           -1.33270   1.36976  -0.03303
H           -1.91989   1.93068  -0.65393
H           -1.68886   1.51375   0.92242
C            0.10918   1.68067  -0.16176
C            0.82492   0.46347  -0.10158
C            2.25130   0.41199   0.15995
O            2.93673  -0.59111   0.27368
C           -0.05071  -0.66211  -0.25832
O            0.14062  -1.86682  -0.34830
H           -2.13603  -0.69652   1.61176
H           -3.48382  -0.43703   0.46859
H           -2.45240  -1.87485   0.33657
H           -1.82720  -0.17751  -1.40709
H            0.38620   2.64187   0.22738
H            2.71707   1.41729   0.27021