17
charge 0 multiplicity 2
C           -2.58558  -0.78714   0.35759
C           -1.47954  -0.06732  -0.38099
N           -1.30079   1.37361   0.06742
H           -1.90688   2.01123  -0.44725
H           -1.56515   1.43067   1.06109
C            0.14801   1.67530  -0.14747
C            0.84789   0.45053  -0.04705
C            2.28776   0.38199   0.10311
O            2.96737  -0.62848   0.15553
C           -0.05657  -0.66483  -0.16637
O            0.10500  -1.87386  -0.14794
H           -2.42028  -0.75647   1.43885
H           -3.57654  -0.38508   0.13065
H           -2.55344  -1.83584   0.05836
H           -1.66953  -0.02249  -1.45730
H            0.47222   2.64838   0.19244
H            2.77434   1.38182   0.17754