17
charge 0 multiplicity 2
C           -2.61010  -0.79835   0.24703
C           -1.45279  -0.08005  -0.40407
N           -1.33145   1.36052   0.05204
H           -1.87788   1.99860  -0.52618
H           -1.70661   1.42386   1.00477
C            0.13497   1.69188   0.05575
C            0.84947   0.46106   0.04141
C            2.29640   0.38732   0.10883
O            2.98216  -0.61485   0.00865
C           -0.04256  -0.66467  -0.07226
O            0.12924  -1.87179  -0.03841
H           -2.55885  -0.71687   1.33802
H           -3.58461  -0.43935  -0.09608
H           -2.51513  -1.85766   0.00058
H           -1.55270  -0.05108  -1.49577
H            0.38337   2.64243  -0.40156
H            2.78898   1.38643   0.18987