17
charge 0 multiplicity 2
C           -2.59047  -0.79323   0.32083
C           -1.46655  -0.08528  -0.40167
N           -1.32150   1.37285   0.01033
H           -1.82597   1.99336  -0.62125
H           -1.74589   1.48470   0.93781
C            0.13959   1.67566   0.04866
C            0.84509   0.45461   0.03001
C            2.28900   0.38864   0.11890
O            2.97743  -0.61485   0.04625
C           -0.04453  -0.66560  -0.12404
O            0.12010  -1.87459  -0.09056
H           -2.47582  -0.70215   1.40594
H           -3.57958  -0.42996   0.02955
H           -2.51987  -1.85574   0.08219
H           -1.61953  -0.08186  -1.48513
H            0.43062   2.66344  -0.26866
H            2.77350   1.38501   0.24560