15
charge 0 multiplicity 2
C            3.22677   0.10489   0.68038
C            2.30117   0.16772  -0.53484
N            1.15679  -0.71762  -0.35050
C            0.00927  -0.23320  -0.18704
N           -1.09004  -1.11665   0.00975
N           -2.35177  -0.78870   0.19480
N           -2.69143   0.45474   0.20914
C           -1.63401   1.32576   0.01916
N           -0.41218   1.11534  -0.16248
H            2.72026   0.48251   1.57217
H            3.54044  -0.92323   0.87430
H            4.11779   0.71452   0.50926
H            1.98590   1.20039  -0.71744
H            2.83878  -0.18276  -1.42066
H           -0.90203  -2.11210   0.01139