15
charge 0 multiplicity 2
C            3.22418   0.10789   0.68341
C            2.30188   0.16502  -0.53457
N            1.15693  -0.71940  -0.34908
C            0.00927  -0.23431  -0.18924
N           -1.09092  -1.11676   0.00696
N           -2.35146  -0.78749   0.19794
N           -2.68979   0.45617   0.21451
C           -1.63268   1.32620   0.01691
N           -0.41178   1.11454  -0.16949
H            2.71529   0.48972   1.57205
H            3.53729  -0.91931   0.88302
H            4.11569   0.71668   0.51184
H            1.98703   1.19680  -0.72284
H            2.84176  -0.18975  -1.41728
H           -0.90392  -2.11240   0.00827