15
charge 0 multiplicity 2
C            3.22810   0.10303   0.67913
C            2.30097   0.16923  -0.53466
N            1.15664  -0.71640  -0.35091
C            0.00917  -0.23256  -0.18628
N           -1.08980  -1.11660   0.01013
N           -2.35170  -0.78946   0.19354
N           -2.69211   0.45381   0.20779
C           -1.63482   1.32541   0.02027
N           -0.41245   1.11614  -0.16011
H            2.72280   0.47824   1.57262
H            3.54195  -0.92563   0.86982
H            4.11897   0.71308   0.50860
H            1.98540   1.20233  -0.71415
H            2.83719  -0.17917  -1.42214
H           -0.90095  -2.11192   0.01137