16
charge 0 multiplicity 2
C            3.99248   0.38087   0.05450
N            2.78934  -0.36143  -0.12590
C            1.55046   0.16959  -0.03561
N            0.45274  -0.53715  -0.03263
H            0.49599  -1.55685  -0.04099
C           -0.87708  -0.11668  -0.01248
C           -1.47597   1.15027  -0.02304
C           -2.82857   0.80742   0.01815
N           -2.99520  -0.54354   0.04763
N           -1.78840  -1.11358   0.03558
H            4.59432   0.19412   0.94683
H            3.90128   1.43060  -0.22571
H            2.87770  -1.37028  -0.12105
H            1.46747   1.24779  -0.00429
H           -1.02801   2.13024  -0.06020
H           -3.68603   1.46552   0.02348