16
charge 0 multiplicity 2
C            3.97393   0.36242   0.00037
N            2.78330  -0.31198   0.00009
C            1.54437   0.21725   0.00010
N            0.44823  -0.52506  -0.00058
H            0.51504  -1.54175  -0.00085
C           -0.87509  -0.12138  -0.00018
C           -1.48363   1.14393  -0.00020
C           -2.83229   0.79844   0.00015
N           -2.99460  -0.55899   0.00033
N           -1.79142  -1.12263   0.00008
H            4.88002  -0.21653  -0.00011
H            3.96304   1.43950  -0.00074
H            2.84589  -1.32350   0.00053
H            1.44681   1.29224   0.00058
H           -1.03911   2.12629  -0.00050
H           -3.69389   1.45040   0.00026