16
charge 0 multiplicity 2
C            3.94139   0.36560  -0.06559
N            2.78841  -0.30957   0.02277
C            1.54037   0.21279   0.07322
N            0.45703  -0.52667  -0.00023
H            0.52698  -1.54431  -0.03406
C           -0.86931  -0.12238  -0.00771
C           -1.47620   1.14340  -0.01146
C           -2.82663   0.79766  -0.00881
N           -2.98860  -0.55997  -0.00220
N           -1.78495  -1.12294  -0.00211
H            4.85874  -0.18256   0.01154
H            3.86491   1.43608  -0.01457
H            2.86543  -1.31927  -0.05309
H            1.44392   1.28655   0.11800
H           -1.03362   2.12630  -0.02115
H           -3.68740   1.44883  -0.01221