16
charge 0 multiplicity 2
C            3.97333   0.36579  -0.02770
N            2.78401  -0.31460   0.00928
C            1.54410   0.21449   0.02183
N            0.44879  -0.52535  -0.01542
H            0.51387  -1.54210  -0.02996
C           -0.87540  -0.12130  -0.00747
C           -1.48315   1.14404  -0.00699
C           -2.83216   0.79869   0.00151
N           -2.99454  -0.55825   0.00721
N           -1.79100  -1.12220   0.00346
H            4.87737  -0.20889   0.06942
H            3.95458   1.44241   0.01205
H            2.84647  -1.32589  -0.00576
H            1.44920   1.28947   0.05257
H           -1.03898   2.12647  -0.01860
H           -3.69363   1.45102   0.00150