17
charge -1 multiplicity 1
N            0.38591  -1.45443  -0.21173
C            1.50363  -0.44810   0.05436
O            2.67901  -0.67643  -0.03400
C            1.00202   0.86024   0.51236
O            0.58220   1.78574  -0.50172
C           -0.40216   1.07293   0.25867
C           -1.18680   0.05201  -0.39903
C           -1.89083  -0.92287   0.52194
C           -2.71492   0.05244  -0.36915
H            0.64899  -2.39736  -0.58765
H           -0.62848  -1.20693  -0.13741
H            1.61459   1.32938   1.27939
H           -0.93610   1.74181   0.92382
H           -0.70583  -0.31517  -1.31321
H           -1.90595  -1.97420   0.28348
H           -1.72035  -0.75973   1.56692
H           -3.02353   0.88880   0.27760