15
charge 0 multiplicity 2
O            2.50903  -0.74072  -0.30756
C            1.51151  -0.01469   0.34779
C            1.27802   1.36824  -0.25019
N           -0.17005   1.64221   0.12567
H           -0.20738   2.09173   1.04570
H           -0.62098   2.28499  -0.52816
C           -0.86225   0.31654   0.11583
C           -2.25131   0.33782  -0.09154
O           -3.05668  -0.55060  -0.16763
C            0.12234  -0.69670   0.18556
O            0.06048  -1.91548   0.09433
H            2.14993  -1.64321  -0.40521
H            1.73550   0.07392   1.42343
H            1.91141   2.17218   0.12374
H            1.32942   1.31220  -1.33709