15
charge 0 multiplicity 2
O            2.52314  -0.70699  -0.32807
C            1.51443  -0.01445   0.34719
C            1.27159   1.37297  -0.23417
N           -0.17943   1.63105   0.13036
H           -0.23552   2.07541   1.05122
H           -0.63980   2.26480  -0.52636
C           -0.86002   0.29670   0.10994
C           -2.23745   0.31217  -0.09528
O           -3.09160  -0.51943  -0.17436
C            0.13559  -0.71087   0.18701
O            0.07174  -1.92914   0.10750
H            2.18447  -1.61336  -0.42366
H            1.74426   0.05464   1.42181
H            1.89797   2.17314   0.15685
H            1.33357   1.33337  -1.32099