15
charge 0 multiplicity 2
O            2.52814  -0.70073  -0.32880
C            1.51596  -0.00959   0.34753
C            1.26565   1.37608  -0.23527
N           -0.18608   1.63006   0.12781
H           -0.24511   2.07834   1.04654
H           -0.65068   2.25850  -0.53140
C           -0.86235   0.29141   0.11462
C           -2.23906   0.30337  -0.09130
O           -3.10033  -0.52251  -0.17644
C            0.14133  -0.71058   0.19076
O            0.08401  -1.92826   0.10368
H            2.20825  -1.61560  -0.41028
H            1.74665   0.06327   1.42223
H            1.88936   2.17936   0.15454
H            1.33031   1.33352  -1.32185