15
charge 0 multiplicity 2
O            2.53040  -0.69679  -0.32995
C            1.51562  -0.01063   0.34809
C            1.26661   1.37720  -0.23011
N           -0.18641   1.62885   0.12697
H           -0.24976   2.07615   1.04589
H           -0.64929   2.25759  -0.53321
C           -0.86301   0.28863   0.11010
C           -2.23968   0.30304  -0.09087
O           -3.10540  -0.51976  -0.17438
C            0.14335  -0.71201   0.18250
O            0.08537  -1.93029   0.10627
H            2.21509  -1.61362  -0.40820
H            1.74332   0.05740   1.42396
H            1.88817   2.17946   0.16550
H            1.33711   1.33836  -1.31654