15
charge 0 multiplicity 2
O            2.52811  -0.69696  -0.33392
C            1.51599  -0.01080   0.34780
C            1.26665   1.37714  -0.22999
N           -0.18576   1.62882   0.12817
H           -0.24871   2.07571   1.04730
H           -0.64832   2.25815  -0.53161
C           -0.86304   0.28831   0.11095
C           -2.23928   0.30400  -0.09249
O           -3.10473  -0.51954  -0.17628
C            0.14322  -0.71223   0.18749
O            0.08551  -1.93032   0.10771
H            2.21271  -1.61419  -0.40663
H            1.74743   0.05687   1.42286
H            1.88862   2.17943   0.16496
H            1.33624   1.33833  -1.31651