15
charge 0 multiplicity 2
O            2.52664  -0.69686  -0.33634
C            1.51546  -0.01204   0.34825
C            1.26822   1.37704  -0.22694
N           -0.18480   1.62909   0.12752
H           -0.25043   2.07513   1.04676
H           -0.64501   2.25883  -0.53326
C           -0.86290   0.28836   0.10810
C           -2.23984   0.30612  -0.09283
O           -3.10348  -0.51910  -0.17574
C            0.14228  -0.71249   0.18694
O            0.08403  -1.93083   0.10882
H            2.21452  -1.61556  -0.40251
H            1.74710   0.05198   1.42342
H            1.88962   2.17804   0.17126
H            1.34097   1.34029  -1.31331