14
charge 0 multiplicity 2
C           -0.80427   2.33866  -0.00218
C           -0.00692   1.08125  -0.00391
N            1.29427   1.01161  -0.00039
C            1.55979  -0.35424  -0.01763
N            2.81585  -0.82097   0.03895
N            0.46457  -1.12257  -0.02654
N           -0.54891  -0.20118   0.00122
C           -1.90602  -0.56626   0.01139
O           -2.30712  -1.69376   0.00553
H           -1.43525   2.41098   0.88762
H           -0.10843   3.17528  -0.00713
H           -1.44857   2.41026  -0.88242
H            2.77157  -1.83254  -0.08404
H           -2.55826   0.32138   0.02297