11
charge -1 multiplicity 1
O            3.01134  -1.20129  -0.51807
C            2.69844  -0.01296   0.89398
C            1.13503   0.22228   0.06926
C            0.57268   1.46345  -0.10274
O           -0.79699   1.36414  -0.27940
C           -1.01304   0.00487  -0.04216
N            0.07401  -0.70496   0.01079
C           -2.35613  -0.43659   0.14299
C           -3.49249  -0.84302   0.08630
H            0.98762   2.45552  -0.04426
H           -4.48748  -1.21172   0.06278