16
charge 0 multiplicity 2
O            2.31414  -1.37989   0.07728
C            1.52205  -0.41631  -0.01064
C            1.77607   1.02486   0.09485
H            2.72740   1.51281   0.24346
N            0.66254   1.77873   0.02381
C           -0.32836   0.85804  -0.17021
C            0.08416  -0.45879  -0.20818
C           -1.03031  -1.42667  -0.19756
N           -2.15707  -0.49173   0.34691
H           -3.09516  -0.78489   0.06097
H           -2.10349  -0.50986   1.36561
C           -1.80772   0.94368  -0.12076
H           -1.39897  -1.78232  -1.17109
H           -0.93736  -2.28433   0.47334
H           -2.23017   1.66642   0.57986
H           -2.30902   1.06343  -1.09042