16
charge 0 multiplicity 2
O            2.38859  -1.33434   0.06394
C            1.54010  -0.42059   0.00204
C            1.76784   1.04661   0.06682
H            2.74887   1.49741   0.15485
N            0.64442   1.76425   0.02730
C           -0.34288   0.83101  -0.11710
C            0.09249  -0.47778  -0.16002
C           -1.03401  -1.42959  -0.17824
N           -2.19217  -0.49555   0.29981
H           -3.10742  -0.79104  -0.04664
H           -2.20862  -0.52794   1.31915
C           -1.83064   0.94058  -0.12266
H           -1.34731  -1.79294  -1.16597
H           -0.97674  -2.27697   0.50839
H           -2.25891   1.64356   0.59289
H           -2.28180   1.10031  -1.10903