16
charge 0 multiplicity 2
O            2.38014  -1.34288   0.04992
C            1.54117  -0.42038  -0.00041
C            1.77444   1.04218   0.06537
H            2.75040   1.50134   0.15520
N            0.65016   1.76646   0.02153
C           -0.34050   0.83502  -0.09734
C            0.09112  -0.47547  -0.12166
C           -1.03337  -1.42966  -0.16964
N           -2.19876  -0.49368   0.28231
H           -3.10522  -0.78566  -0.08939
H           -2.24193  -0.52948   1.30052
C           -1.82518   0.94335  -0.12733
H           -1.32056  -1.79531  -1.16489
H           -0.99555  -2.27858   0.51721
H           -2.27172   1.64335   0.58120
H           -2.26238   1.10763  -1.12008