16
charge 0 multiplicity 2
O            2.38226  -1.34556   0.03719
C            1.54282  -0.42084   0.00562
C            1.77885   1.04075   0.05158
H            2.75533   1.50283   0.12089
N            0.65451   1.76641   0.01880
C           -0.33955   0.83433  -0.06455
C            0.08954  -0.47607  -0.07745
C           -1.03337  -1.42851  -0.16410
N           -2.20931  -0.49330   0.25807
H           -3.10422  -0.78054  -0.14291
H           -2.28404  -0.53582   1.27412
C           -1.82350   0.94616  -0.13016
H           -1.28658  -1.78871  -1.17045
H           -1.02144  -2.28107   0.51931
H           -2.29105   1.63984   0.57131
H           -2.23131   1.12133  -1.13343