17
charge 0 multiplicity 2
O           -2.88820  -0.27435   0.36567
C           -1.90459  -0.91471   0.03835
C           -0.56168  -0.42225  -0.20205
C            0.46884  -1.37979  -0.58427
C            1.83863  -1.24274   0.06377
N            1.99647   0.17102   0.59423
H            1.50244   0.21479   1.48981
H            2.97938   0.38941   0.76091
C            1.33094   1.18849  -0.31000
C           -0.20823   0.96574  -0.17992
O           -0.90127   1.97206  -0.08480
H           -1.97665  -2.02824  -0.04490
H            0.12134  -2.41392  -0.60191
H            1.95298  -1.90315   0.92923
H            2.67483  -1.41392  -0.62128
H            1.58538   2.18665   0.04236
H            1.71736   1.02113  -1.31601