17
charge 0 multiplicity 2
O           -2.95375  -0.16991   0.18642
C           -1.97093  -0.87936   0.09973
C           -0.57384  -0.47375  -0.05611
C            0.40971  -1.49095  -0.07870
C            1.79453  -1.15253  -0.41487
N            2.18437   0.07684   0.45881
H            1.99705  -0.18761   1.42895
H            3.17649   0.31680   0.37622
C            1.31268   1.25476   0.08454
C           -0.19267   0.90989  -0.11665
O           -0.89371   1.90529  -0.28455
H           -2.08267  -1.98867   0.15679
H            0.15086  -2.52499   0.10454
H            2.51073  -1.94670  -0.20602
H            1.95533  -0.77341  -1.43582
H            1.39119   1.99824   0.87821
H            1.71325   1.67720  -0.83702