17
charge 0 multiplicity 2
O           -2.94157  -0.26007   0.18661
C           -1.93446  -0.92213   0.02751
C           -0.55148  -0.45645  -0.08627
C            0.46089  -1.45246  -0.27423
C            1.91069  -1.20022  -0.01756
N            2.08503   0.22494   0.46854
H            1.72458   0.27524   1.42489
H            3.07520   0.47425   0.49562
C            1.27304   1.20389  -0.35795
C           -0.22707   0.94279  -0.10059
O           -0.95056   1.93474   0.02086
H           -2.01772  -2.03387  -0.06020
H            0.18173  -2.49583  -0.37310
H            2.34541  -1.83314   0.77323
H            2.55639  -1.29929  -0.89895
H            1.53139   2.21439  -0.04600
H            1.55528   1.03373  -1.40041