17
charge 0 multiplicity 2
O           -2.94455  -0.22494   0.10442
C           -1.93901  -0.90001   0.04004
C           -0.55146  -0.44581  -0.07303
C            0.41573  -1.47042  -0.10041
C            1.85817  -1.18847  -0.18716
N            2.09083   0.14854   0.47958
H            1.72185   0.09996   1.43324
H            3.08490   0.36852   0.53323
C            1.31512   1.21810  -0.27143
C           -0.20256   0.93893  -0.12452
O           -0.91519   1.94115   0.02125
H           -2.01552  -2.01497   0.05019
H            0.10409  -2.50255  -0.05177
H            2.48153  -1.93216   0.32032
H            2.27707  -1.06278  -1.20179
H            1.55516   2.18848   0.15990
H            1.65709   1.17218  -1.30664