17
charge 0 multiplicity 2
O           -2.94720  -0.21517   0.09873
C           -1.94483  -0.89628   0.04904
C           -0.55427  -0.45062  -0.06726
C            0.41479  -1.47740  -0.06839
C            1.84455  -1.18435  -0.23842
N            2.11808   0.13336   0.46827
H            1.78450   0.04621   1.43230
H            3.11367   0.35362   0.49199
C            1.32011   1.23504  -0.21144
C           -0.20188   0.93233  -0.12013
O           -0.92422   1.93127  -0.01484
H           -2.02554  -2.00971   0.08541
H            0.10657  -2.50829   0.01515
H            2.49419  -1.95176   0.18780
H            2.19298  -0.99922  -1.27133
H            1.53177   2.17786   0.29035
H            1.67584   1.27658  -1.24102