17
charge 0 multiplicity 2
O           -2.96356  -0.17785   0.13026
C           -1.97553  -0.88358   0.07764
C           -0.57117  -0.47632  -0.04120
C            0.42275  -1.50286  -0.05681
C            1.82893  -1.17465  -0.33801
N            2.18977   0.12406   0.43779
H            1.97051  -0.06141   1.42048
H            3.17906   0.37905   0.37007
C            1.31490   1.25965  -0.04398
C           -0.20411   0.91036  -0.07532
O           -0.92498   1.89890  -0.17510
H           -2.08724  -1.99129   0.13793
H            0.14873  -2.54221   0.06987
H            2.51863  -1.95738  -0.02896
H            2.04167  -0.89157  -1.38167
H            1.45491   2.11428   0.61690
H            1.65905   1.51819  -1.04427