14
charge 0 multiplicity 2
C           -3.25881  -0.48565   0.06348
C           -1.81490  -0.13228   0.01185
N           -0.79435  -0.97969  -0.00057
C            0.27879  -0.15995  -0.06189
O            1.52540  -0.68092  -0.08975
C            2.57650   0.17402   0.15700
N            3.76116  -0.19123  -0.02360
N            0.02321   1.13439  -0.08840
N           -1.34064   1.13081  -0.03121
H           -3.88454   0.40703   0.11846
H           -3.53905  -1.05479  -0.82556
H           -3.46082  -1.11021   0.93569
H            2.29018   1.16450   0.51540
H           -1.84416   2.00403  -0.04226