14
charge 0 multiplicity 2
C           -3.26069  -0.48123   0.04971
C           -1.81606  -0.12922   0.00927
N           -0.79758  -0.97892   0.00559
C            0.27637  -0.16179  -0.04892
O            1.52212  -0.69466  -0.07228
C            2.57488   0.16337   0.14035
N            3.76438  -0.17588  -0.03607
N            0.02675   1.13271  -0.07505
N           -1.33739   1.13337  -0.02919
H           -3.88579   0.41203   0.09905
H           -3.53342  -1.05068  -0.84132
H           -3.46932  -1.10479   0.92093
H            2.30937   1.16666   0.48349
H           -1.83783   2.00827  -0.04326