14
charge 0 multiplicity 2
C           -3.26058  -0.48231   0.04064
C           -1.81590  -0.12976   0.00794
N           -0.79725  -0.97913   0.00614
C            0.27597  -0.16042  -0.03746
O            1.52216  -0.69308  -0.05740
C            2.57552   0.16546   0.13141
N            3.76378  -0.18030  -0.04782
N            0.02646   1.13373  -0.06615
N           -1.33782   1.13300  -0.02863
H           -3.88640   0.41068   0.08689
H           -3.52853  -1.05172  -0.85193
H           -3.47359  -1.10624   0.91062
H            2.31350   1.17525   0.45897
H           -1.83846   2.00772  -0.04529