14
charge 0 multiplicity 2
C           -3.26095  -0.48370   0.03086
C           -1.81641  -0.13011   0.00596
N           -0.79717  -0.97894   0.00688
C            0.27607  -0.15991  -0.02879
O            1.52195  -0.69283  -0.04075
C            2.57783   0.17059   0.11434
N            3.76455  -0.18636  -0.05231
N            0.02549   1.13423  -0.05500
N           -1.33917   1.13299  -0.02516
H           -3.88761   0.40889   0.07250
H           -3.52332  -1.05435  -0.86253
H           -3.47854  -1.10675   0.90034
H            2.31892   1.19276   0.40235
H           -1.84030   2.00743  -0.04166