18
charge 0 multiplicity 2
N            2.26543  -1.01130  -0.60124
C            1.76252  -0.02692   0.29769
C            1.24805   1.28895  -0.36757
N           -0.07096   1.02323   0.27495
H           -0.62416   1.72784   0.79044
C            0.37553  -0.18992   0.88268
C           -0.44543  -1.18447   0.26251
C           -1.62626  -0.21275  -0.12408
O           -1.21042   1.00128  -0.28626
O           -2.76355  -0.57354  -0.27244
H            2.56613  -1.86044  -0.13171
H            1.57545  -1.25023  -1.32916
H            2.48938   0.17751   1.09463
H            1.74954   2.22254  -0.10087
H            1.16029   1.23952  -1.44515
H            0.34510  -0.16405   1.97708
H            0.02430  -1.58663  -0.65855
H           -0.74197  -2.06085   0.84955