11
charge -1 multiplicity 1
O            2.56101  -1.42367  -0.53268
C            1.33299  -1.58644   0.90988
C            0.61143  -0.16567  -0.10110
C           -0.72225   0.13751  -0.09930
O           -0.91926   1.50127  -0.04404
N            0.34325   2.11444   0.10822
C            1.20741   1.13277   0.07395
C           -1.88585  -0.65775  -0.14167
C           -2.88655  -1.32968  -0.03020
H            2.26967   1.34056   0.17144
H           -3.74936  -1.94686   0.01543