17
charge 0 multiplicity 2
C           -2.97265   0.00730  -0.32294
N           -1.50884  -0.19880  -0.37499
H           -1.24351  -0.87511  -1.09339
H           -0.96774   0.66367  -0.60610
C           -0.75305  -0.74571   0.95565
C            0.64988  -0.41110   0.76034
C            1.03063   1.03665   0.77490
O            0.69103   1.61409  -0.52832
N            1.27004  -1.23148  -0.10345
O            2.25112  -0.73002  -0.74436
H           -3.46034  -0.93453  -0.06438
H           -3.19319   0.75064   0.44485
H           -3.34422   0.36108  -1.28706
H           -1.27334  -0.23253   1.76805
H            0.48410   1.62109   1.52172
H            2.10496   1.15531   0.93936
H            1.29875   1.10695  -1.10026
17
charge 0 multiplicity 2
C           -3.07156   0.04916  -0.30096
N           -1.63256  -0.28243  -0.33658
H           -1.47326  -1.23787  -0.66700
H           -1.08222   0.32355  -0.98050
C           -0.82997  -0.19568   1.03405
C            0.58682  -0.22501   0.78329
C            1.29262   1.08874   0.58758
O            1.06306   1.50137  -0.79516
N            1.04620  -1.30048   0.10802
O            2.12152  -1.13182  -0.55652
H           -3.57356  -0.61737   0.39903
H           -3.18329   1.07922   0.03551
H           -3.50476  -0.05895  -1.29564
H           -1.25080   0.62150   1.62349
H            0.89451   1.88373   1.21901
H            2.36802   0.99461   0.75419
H            1.56581   0.83231  -1.29843
17
charge 0 multiplicity 2
C           -3.10792   0.00791   0.38256
N           -1.92915  -0.04691  -0.50834
H           -1.34876  -0.95794  -0.32645
H           -2.21765  -0.00064  -1.48109
C           -0.85087   0.91480  -0.21342
C            0.32789   0.29031   0.07834
C            1.60367   1.01288   0.44537
O            2.67246   0.58720  -0.37769
N            0.28890  -1.07237  -0.02861
O            1.38443  -1.72769   0.16032
H           -2.75323  -0.11727   1.40272
H           -3.60027   0.97393   0.27966
H           -3.80056  -0.79427   0.12429
H           -1.08100   1.96614  -0.20558
H            1.49579   2.08878   0.31032
H            1.82541   0.82684   1.50897
H            2.67022  -0.38212  -0.27236