14
charge 0 multiplicity 2
O           -2.12073  -1.02760   0.15685
C           -1.17365  -0.29652  -0.11935
C           -1.13873   1.19464   0.18569
C            0.09848   1.67872   0.08914
N            0.97050   0.61994  -0.40973
H            1.49767   0.94446  -1.22182
C            1.82762  -0.28204   0.49277
C            1.11753  -1.54173  -0.03608
C            0.09831  -0.60420  -0.69090
H           -2.00703   1.74754   0.52011
H            0.50560   2.67179   0.22006
H            2.89529  -0.14216   0.30131
H            1.59084  -0.03561   1.52728
H            0.71265  -2.19802   0.73879
14
charge 0 multiplicity 2
O           -2.27288  -1.04840   0.01197
C           -1.28069  -0.30507  -0.07401
C           -1.20469   1.13889   0.19742
C            0.05312   1.66354   0.13054
N            0.91608   0.60264  -0.40705
H            1.14510   0.79587  -1.38442
C            2.08520  -0.19668   0.24122
C            1.18658  -1.40728   0.14557
C            0.11305  -0.66687  -0.28457
H           -2.07990   1.70125   0.49371
H            0.41839   2.67668   0.17394
H            3.00085  -0.13066  -0.35749
H            2.26019   0.19821   1.24204
H            1.31042  -2.43172   0.44878
14
charge 0 multiplicity 2
O           -2.27358  -1.04775   0.01039
C           -1.28102  -0.30482  -0.07370
C           -1.20451   1.13862   0.19850
C            0.05377   1.66324   0.13156
N            0.91631   0.60263  -0.40746
H            1.14400   0.79546  -1.38522
C            2.08568  -0.19694   0.23982
C            1.18627  -1.40695   0.14745
C            0.11299  -0.66725  -0.28385
H           -2.07971   1.70047   0.49575
H            0.41742   2.67727   0.16983
H            3.00029  -0.13219  -0.36060
H            2.26313   0.19862   1.23995
H            1.31034  -2.43140   0.45072