11
charge 0 multiplicity 2
C            2.60531  -0.49934  -0.01612
C            1.16106  -0.17288   0.00934
N            0.13335  -0.95847  -0.00111
C           -0.90922  -0.06275  -0.03376
N           -0.57044   1.20345  -0.06569
O            0.80836   1.14041   0.00970
C           -2.21717  -0.29961   0.65121
C           -2.69170  -0.48249  -0.53019
H            3.13160  -0.03331   0.82025
H            2.72664  -1.57962   0.02943
H            3.04482  -0.12278  -0.94253