19
charge 1 multiplicity 1
C           -1.86018   0.45037   0.00614
C           -0.70004   1.25348   0.71201
C            0.34041   1.43472  -0.32221
C            1.45849   0.69757  -0.56869
C            2.14535  -0.33616   0.32133
C            0.93249  -1.05324   0.17303
C           -0.22348  -1.61172   0.06959
C           -1.55847  -1.02248  -0.38459
H           -2.71591   0.47485   0.68027
H           -2.14584   1.00366  -0.88884
H           -1.10883   2.21515   1.02581
H           -0.35437   0.72190   1.59904
H            0.08791   2.14551  -1.10563
H            1.89513   0.77915  -1.55920
H            3.02568  -0.74563  -0.16217
H            2.33239  -0.00332   1.34575
H           -0.28596  -2.63454   0.44496
H           -2.32008  -1.67153   0.04842
H           -1.61749  -1.16054  -1.46799