17
charge 0 multiplicity 2
C           -2.16028  -1.10825  -0.13173
C           -1.01287  -0.20665   0.17490
C            0.24906  -0.51714   0.51184
C            1.30265  -1.52486   0.09994
C            1.84401  -0.27328  -0.61976
C            1.13324   0.68581   0.34626
O            0.30552   1.74422  -0.11241
C           -1.06646   1.29246  -0.05950
H           -3.01843  -0.89781   0.51658
H           -2.50478  -0.97216  -1.16422
H           -1.88676  -2.15584   0.00625
H            1.94349  -1.87900   0.91139
H            0.97944  -2.36810  -0.51249
H            1.71674  -0.15462  -1.69236
H            1.74102   1.01859   1.19342
H           -1.55320   1.51735  -1.01626
H           -1.59785   1.84923   0.72535