14
charge 1 multiplicity 1
C            3.26358   0.79730   0.07527
C            2.03463   0.03898  -0.05252
C            1.01697  -0.60761  -0.14112
C           -0.13977  -1.41669  -0.27797
N           -1.09392  -1.46538   0.82368
C           -1.61948  -0.73255  -0.39212
C           -1.72072   0.67477  -0.19194
O           -2.02018   2.56907   0.12673
H            4.08837   0.25463  -0.44570
H            3.14322   1.81120  -0.38938
H            3.53387   0.92833   1.15917
H           -0.07531  -2.28299  -0.98438
H           -1.56239  -2.37717   0.90364
H           -2.32017  -1.15411  -1.14056