14
charge 1 multiplicity 1
C           -1.60946  -0.42888   0.90398
C           -1.51729   0.52728  -0.26161
N           -0.38393   1.43627  -0.08480
C            0.58530   0.71942  -0.36817
O            1.86744   0.51793   0.36514
C            1.71309  -0.73854   0.26528
C            0.49255  -0.75923  -0.62475
C           -0.98958  -0.96187  -0.34977
H           -1.00825  -0.21319   1.77994
H           -2.60188  -0.79894   1.12825
H           -2.38893   0.90215  -0.77737
H            2.42439  -1.42742   0.71501
H            0.78749  -1.10789  -1.62445
H           -1.51252  -1.70109  -0.93862
14
charge 1 multiplicity 1
C           -1.59933  -0.43010   0.90406
C           -1.52340   0.52905  -0.25308
N           -0.38698   1.43911  -0.07376
C            0.57579   0.72416  -0.37999
O            1.88625   0.51475   0.35851
C            1.69998  -0.73759   0.27203
C            0.49248  -0.75869  -0.63519
C           -0.98700  -0.96153  -0.35450
H           -0.99447  -0.22069   1.77952
H           -2.58814  -0.80814   1.13271
H           -2.39523   0.90459  -0.76772
H            2.36839  -1.44633   0.75630
H            0.79010  -1.11423  -1.62951
H           -1.51285  -1.69879  -0.94310