14
charge 0 multiplicity 2
N            1.02153   1.30937   0.31270
H            1.22259   2.28738   0.13520
H            1.31075   1.06092   1.25298
C            1.57254   0.41613  -0.70209
C            1.05113  -0.97057  -0.41111
O            0.67134  -1.26085   0.92894
C           -0.36203  -1.11502  -0.05694
C           -1.27733   0.07993  -0.01658
O           -2.43844  -0.00168  -0.36441
O           -0.74977   1.22679   0.32950
H            1.19221   0.75314  -1.67063
H            2.66965   0.39112  -0.76705
H            1.57410  -1.79569  -0.89359
H           -0.89103  -2.03951  -0.27763