13
charge 0 multiplicity 2
C            2.80746  -0.46846   0.00126
C            1.59651   0.43261   0.07692
O            0.41218  -0.42151  -0.02098
C           -0.75183   0.18749  -0.04739
N           -0.84551   1.44350  -0.05691
C           -1.85538  -0.74434  -0.39767
O           -2.35258  -0.62448   0.31625
H            2.81857  -1.18286   0.82961
H            2.81783  -1.02433  -0.94045
H            3.71621   0.13964   0.05577
H            1.54894   0.98599   1.01936
H            1.55683   1.15528  -0.74384
H           -1.79709   1.74589   0.01713