17
charge 0 multiplicity 2
C           -1.77400   1.41796  -0.66824
C           -2.03031   0.24280   0.24608
C           -1.86396  -1.17102  -0.25627
C           -0.89104  -0.61281   0.74697
N            0.44025  -0.32271   0.30299
C            1.22778  -0.95533  -0.58547
N            2.38524  -0.41125  -0.71441
C            2.31187   0.63601   0.17739
N            1.16216   0.73132   0.81867
H           -0.97623   1.20161  -1.38163
H           -2.67548   1.66097  -1.23707
H           -1.47682   2.29977  -0.09571
H           -2.81689   0.39632   0.97761
H           -2.54079  -1.94528   0.08145
H           -1.50617  -1.29306  -1.27202
H           -0.92635  -0.97386   1.76755
H            3.12313   1.32633   0.34631