17
charge 0 multiplicity 2
C           -1.77088   1.41847  -0.67149
C           -2.02874   0.24625   0.24544
C           -1.86534  -1.17015  -0.25104
C           -0.89096  -0.60958   0.74891
N            0.44057  -0.32384   0.30426
C            1.21647  -0.94197  -0.60422
N            2.37837  -0.40198  -0.72915
C            2.31564   0.62397   0.18627
N            1.16960   0.71625   0.83417
H           -0.97208   1.20023  -1.38329
H           -2.67134   1.66070  -1.24222
H           -1.47467   2.30157  -0.10044
H           -2.81388   0.40352   0.97777
H           -2.54266  -1.94195   0.09119
H           -1.50905  -1.29814  -1.26662
H           -0.92628  -0.96579   1.77104
H            3.13309   1.30492   0.36429