11
charge 0 multiplicity 2
N            2.13212  -1.80233   0.06385
C            1.23675  -0.96675   0.03227
C           -0.11871  -0.80164   0.06637
C           -1.08873   0.32742   0.12304
O           -0.84963   1.50756   0.22886
N            1.63595   1.83836  -0.15796
N            1.88998   0.78498  -0.15951
C           -2.38382  -0.28517   0.10581
C           -3.53132  -0.67661  -0.32944
H            3.11249  -1.61908  -0.09676
H           -0.60684  -1.77190   0.05291