11
charge 0 multiplicity 2
N            2.32232  -1.57818  -0.00489
C            1.38165  -0.75045   0.00247
C           -0.01655  -0.89133   0.02515
C           -0.98434   0.11761   0.03352
O           -0.82576   1.38652   0.01825
N            1.20461   1.80938  -0.01839
N            1.74228   0.81236  -0.01965
C           -2.38331  -0.25466   0.02041
C           -3.53118  -0.76342  -0.05503
H            3.27029  -1.22428  -0.02788
H           -0.34633  -1.91930   0.02336