11
charge 0 multiplicity 2
N            2.22543  -1.70613   0.03131
C            1.31297  -0.87164   0.01243
C           -0.06735  -0.83921   0.05399
C           -1.05041   0.22939   0.08471
O           -0.85285   1.45070   0.14863
N            1.44601   1.84665  -0.09893
N            1.82522   0.80595  -0.10847
C           -2.36522  -0.33184   0.08969
C           -3.55672  -0.67800  -0.23074
H            3.19664  -1.44493  -0.07814
H           -0.49014  -1.83822   0.06145