18
charge 0 multiplicity 2
N           -2.35330  -1.34137   0.04079
H           -2.45054  -1.38982   1.06342
H           -2.58611  -2.26491  -0.31786
H           -3.06746  -0.68276  -0.30580
C           -0.92733  -1.03098  -0.41221
C           -0.60939   0.39801  -0.21657
C            0.81206   0.71470  -0.66370
C            1.91959  -0.12312  -0.01149
O            1.65551  -1.42053   0.17246
O            2.98860   0.35844   0.27381
C           -1.61128   1.51368  -0.28359
N           -1.01023   1.18139   1.01246
H            0.69791  -1.60995  -0.09055
H            0.88193   0.54805  -1.74439
H            1.04700   1.75922  -0.46539
H           -1.30769   2.46814  -0.70119
H           -2.66441   1.29054  -0.45655
H           -1.66070   0.66433   1.60072