18
charge 0 multiplicity 2
N           -2.35235  -1.34219   0.04108
H           -2.43896  -1.40822   1.06339
H           -2.59069  -2.25911  -0.33085
H           -3.06901  -0.67660  -0.28706
C           -0.92778  -1.02998  -0.41706
C           -0.60941   0.39824  -0.21668
C            0.81231   0.71605  -0.66166
C            1.91988  -0.12285  -0.01129
O            1.65485  -1.42027   0.17365
O            2.98969   0.35752   0.27280
C           -1.61122   1.51424  -0.28337
N           -1.01258   1.18025   1.01298
H            0.69876  -1.60947  -0.09243
H            0.88280   0.55237  -1.74284
H            1.04758   1.76005  -0.46095
H           -1.30721   2.46932  -0.69935
H           -2.66380   1.29050  -0.45934
H           -1.66392   0.66250   1.59967