18
charge 0 multiplicity 2
N           -2.41427  -1.34013   0.03496
H           -2.54836  -1.30082   1.05156
H           -2.61663  -2.29657  -0.24845
H           -3.12860  -0.72896  -0.38998
C           -0.97551  -1.03291  -0.39431
C           -0.61552   0.40211  -0.21289
C            0.81030   0.67840  -0.67674
C            1.92727  -0.13712  -0.00602
O            1.69020  -1.43763   0.19164
O            2.99432   0.36272   0.25251
C           -1.58423   1.55020  -0.27812
N           -0.97207   1.20183   1.00978
H            0.74290  -1.64198  -0.08793
H            0.86665   0.47918  -1.75386
H            1.06872   1.72562  -0.52147
H           -1.26315   2.50018  -0.69559
H           -2.64683   1.35972  -0.43067
H           -1.62044   0.70696   1.61847