15
charge 0 multiplicity 2
C            3.40294  -0.38199  -0.00025
C            1.95161  -0.05022  -0.00013
N            1.47129   1.20869  -0.00016
N            0.17207   1.11558   0.00027
C           -0.12204  -0.18037   0.00017
N            0.94468  -0.97278   0.00030
N           -1.46680  -0.58622   0.00027
H           -1.61169  -1.59676   0.00004
C           -2.42734   0.30302   0.00025
N           -3.70584  -0.02973  -0.00043
H            3.66740  -0.97017  -0.88320
H            3.99136   0.53566   0.00018
H            3.66739  -0.97105   0.88210
H           -4.40154   0.69874  -0.00003
H           -4.05173  -0.98781  -0.00114