15
charge 0 multiplicity 2
C            3.40123  -0.38335  -0.00178
C            1.95009  -0.05019  -0.00070
N            1.47368   1.20925  -0.00008
N            0.17227   1.11545   0.00152
C           -0.12203  -0.18027   0.00102
N            0.94391  -0.97318   0.00186
N           -1.46585  -0.58482   0.00120
H           -1.61622  -1.59390   0.00158
C           -2.42708   0.30703   0.00010
N           -3.70543  -0.03182  -0.00188
H            3.66449  -0.97246  -0.88454
H            3.99073   0.53356  -0.00238
H            3.66602  -0.97232   0.88060
H           -4.40417   0.69346  -0.00177
H           -4.04415  -0.99174  -0.00359