12
charge 0 multiplicity 2
N            1.19859   1.71080  -0.06384
C            0.51872   0.57137  -0.01852
C            1.22435  -0.72222  -0.01378
O            2.50267  -0.55685   0.04640
O            0.54399  -1.74809  -0.02623
N           -2.29658  -1.43936   0.02050
N           -1.53123  -0.62553  -0.00788
C           -0.90043   0.63841  -0.00316
N           -1.61274   1.74054   0.01268
H            0.69420   2.57180   0.12205
H            2.18913   1.63821   0.14300
H           -2.61877   1.59901   0.05614