12
charge 0 multiplicity 2
N            1.20775   1.72749   0.00393
C            0.51037   0.61756   0.00141
C            1.28015  -0.71444  -0.00009
O            2.50511  -0.61746  -0.00704
O            0.49804  -1.69940   0.00636
N           -2.33867  -1.38377  -0.00236
N           -1.46527  -0.68263   0.00087
C           -0.89609   0.63275  -0.00109
N           -1.65025   1.70381  -0.00221
H            0.76529   2.63728   0.00576
H            2.21825   1.60997   0.00092
H           -2.65020   1.51818  -0.00429