12
charge 0 multiplicity 2
N            1.20921   1.72767   0.00009
C            0.51086   0.61782   0.00022
C            1.27963  -0.71435   0.00028
O            2.50473  -0.62042  -0.00123
O            0.49525  -1.69879   0.00149
N           -2.33915  -1.38254  -0.00120
N           -1.46424  -0.68343   0.00025
C           -0.89530   0.63431  -0.00022
N           -1.64983   1.70401   0.00037
H            0.76734   2.63765   0.00000
H            2.21959   1.61053   0.00010
H           -2.64978   1.51905  -0.00041