12
charge 0 multiplicity 2
N            1.15132   1.73883  -0.05494
C            0.50505   0.61185  -0.03848
C            1.33280  -0.70660  -0.08252
O            2.52488  -0.58885   0.10453
O            0.53739  -1.67652  -0.00387
N           -2.32413  -1.43324  -0.00177
N           -1.50019  -0.67848  -0.02264
C           -0.91207   0.60656   0.00483
N           -1.64907   1.69453   0.06020
H            0.68477   2.63602   0.01249
H            2.16800   1.64084  -0.08177
H           -2.65121   1.52379   0.09504