12
charge 0 multiplicity 2
N            1.17370   1.73097  -0.00788
C            0.49906   0.61190  -0.00306
C            1.30432  -0.71064   0.00065
O            2.52349  -0.57426   0.01932
O            0.54163  -1.70698  -0.02005
N           -2.33046  -1.41669   0.00838
N           -1.49002  -0.67628  -0.00099
C           -0.91254   0.61451   0.00220
N           -1.65489   1.70040   0.00429
H            0.71581   2.63352  -0.02369
H            2.18677   1.62824  -0.00372
H           -2.65684   1.52463   0.00795