12
charge 0 multiplicity 2
N            1.19771   1.72812   0.00813
C            0.50693   0.61667   0.00226
C            1.28560  -0.71497  -0.00095
O            2.50973  -0.60422  -0.01338
O            0.50838  -1.69993   0.01280
N           -2.33126  -1.39623  -0.00351
N           -1.47144  -0.67812  -0.00057
C           -0.90123   0.62574  -0.00098
N           -1.65218   1.70360  -0.00421
H            0.75131   2.63639   0.00848
H            2.20887   1.61193   0.00267
H           -2.65265   1.51865  -0.00737