12
charge 0 multiplicity 2
N            1.20335   1.72748   0.00992
C            0.50892   0.61729   0.00311
C            1.28259  -0.71499  -0.00079
O            2.50741  -0.61117  -0.01749
O            0.50281  -1.69904   0.01643
N           -2.33567  -1.38879  -0.00518
N           -1.46802  -0.68027   0.00029
C           -0.89838   0.62867  -0.00165
N           -1.65144   1.70340  -0.00541
H            0.75936   2.63674   0.01199
H            2.21415   1.60942   0.00461
H           -2.65154   1.51698  -0.00949