19
charge 0 multiplicity 2
N           -1.63688  -0.56415   0.46950
H           -1.37917  -1.25251  -0.23351
H           -2.46815  -0.89075   0.95362
C           -1.80519   0.78802  -0.09710
C           -0.50907   1.19883  -0.78535
C            0.57454   1.59235   0.22905
O            1.77254   0.87151  -0.04169
C            1.72549  -0.42993   0.52331
C            0.46101  -1.12000  -0.03353
O           -0.57838  -0.89933   0.75051
O            0.40112  -1.63862  -1.12741
H           -2.64812   0.85824  -0.79951
H           -2.02805   1.46019   0.73788
H           -0.13007   0.33500  -1.33683
H           -0.68255   1.98330  -1.52698
H            0.80437   2.66015   0.23925
H            0.22090   1.30814   1.22354
H            2.60092  -0.97191   0.16677
H            1.72515  -0.38487   1.61976