15
charge 0 multiplicity 2
O           -1.19318   1.57237  -0.18762
C           -1.18235   0.33314  -0.21991
N           -0.17151  -0.49051  -0.49043
C            1.02741   0.25021  -0.77716
C            1.57769   0.89020   0.53798
N            2.13488  -0.51056   0.84503
H            2.96329  -0.62772   1.42554
H            1.33600  -1.06008   1.18293
C            2.19408  -0.76052  -0.66077
C           -2.43563  -0.39568   0.10896
N           -3.43041  -0.91404   0.39154
H            2.42484   1.56969   0.42391
H            0.85308   1.24625   1.26422
H            1.98979  -1.79579  -0.92730
H            3.16053  -0.40969  -1.02600