15
charge 0 multiplicity 2
O           -1.25189   1.57313  -0.19923
C           -1.22224   0.33749  -0.23134
N           -0.20077  -0.49127  -0.52270
C            1.02817   0.13329  -0.77664
C            1.60613   0.94514   0.41364
N            2.23317  -0.39099   0.87238
H            3.11108  -0.40446   1.39746
H            1.49208  -0.90281   1.36201
C            2.17931  -0.87074  -0.58648
C           -2.45594  -0.39827   0.13633
N           -3.43541  -0.92529   0.44590
H            2.42799   1.61727   0.16548
H            0.91161   1.38837   1.12028
H            1.96034  -1.92991  -0.69909
H            3.12056  -0.58214  -1.05448