15
charge 0 multiplicity 2
O           -1.07469   1.45823   0.00655
C           -1.31476   0.23100   0.01187
N           -0.39711  -0.76809   0.03286
C            0.85175  -0.38312   0.04552
C            1.54993   0.95064  -0.04928
N            2.90019   0.15423   0.04471
H            3.55722   0.32047  -0.71803
H            3.38781   0.28380   0.92870
C            2.12000  -1.17604  -0.04391
C           -2.69496  -0.23949  -0.00421
N           -3.80677  -0.55752  -0.01452
H            1.52075   1.48265  -1.00607
H            1.44975   1.66523   0.76824
H            2.38136  -1.85430   0.77504
H            2.35465  -1.66205  -1.00168