15
charge 0 multiplicity 2
O           -1.06884   1.45642   0.00049
C           -1.31222   0.23002   0.00983
N           -0.39725  -0.77090   0.03519
C            0.85024  -0.38489   0.04932
C            1.54529   0.95069  -0.03869
N            2.89743   0.15567   0.03816
H            3.54504   0.32521  -0.73171
H            3.39596   0.28375   0.91630
C            2.11916  -1.17574  -0.04548
C           -2.69360  -0.23767  -0.00491
N           -3.80574  -0.55468  -0.01316
H            1.50738   1.49245  -0.98936
H            1.45150   1.65675   0.78727
H            2.38637  -1.85070   0.77453
H            2.35016  -1.66387  -1.00271