15
charge 0 multiplicity 2
O           -1.08518   1.46144   0.01513
C           -1.31693   0.23360   0.02294
N           -0.39622  -0.76206   0.05544
C            0.85532  -0.37926   0.07614
C            1.55946   0.94701  -0.07893
N            2.90325   0.15131   0.06284
H            3.60100   0.32090  -0.66352
H            3.33680   0.27030   0.97594
C            2.11887  -1.17421  -0.06433
C           -2.69616  -0.24203  -0.00725
N           -3.80669  -0.56305  -0.03076
H            1.54793   1.40969  -1.07395
H            1.44522   1.71370   0.68499
H            2.38901  -1.89983   0.70740
H            2.33582  -1.60037  -1.05599