15
charge 0 multiplicity 2
O           -1.09216   1.48310  -0.10064
C           -1.30094   0.25161  -0.05833
N           -0.37559  -0.73105  -0.13233
C            0.85875  -0.35060  -0.32507
C            1.59919   0.95202  -0.10574
N            2.79924   0.10465   0.42799
H            3.74323   0.33469   0.09396
H            2.80704   0.08889   1.44702
C            2.10765  -1.16318  -0.15454
C           -2.66324  -0.25402   0.08673
N           -3.75939  -0.60314   0.20900
H            1.95836   1.46280  -1.00720
H            1.21089   1.66776   0.61318
H            2.09518  -2.01036   0.53323
H            2.66434  -1.41678  -1.06600