15
charge 0 multiplicity 2
O           -1.07903   1.46658  -0.02994
C           -1.30928   0.23493  -0.01627
N           -0.38457  -0.75638  -0.07184
C            0.85225  -0.37336  -0.19207
C            1.57597   0.94531  -0.12635
N            2.85653   0.14087   0.27945
H            3.71455   0.33828  -0.24598
H            3.05236   0.21266   1.27616
C            2.11023  -1.17062  -0.08485
C           -2.68206  -0.24344   0.05482
N           -3.79137  -0.56786   0.10433
H            1.79734   1.45264  -1.07564
H            1.27452   1.67440   0.62080
H            2.18629  -1.94029   0.68728
H            2.56035  -1.54363  -1.01828