17
charge 0 multiplicity 2
N            2.20337   1.32633   0.10958
H            2.18617   2.30653   0.38156
H            3.12132   1.13302  -0.30907
H            2.10498   0.72706   0.95342
C            0.97030   0.96043  -0.69746
C            0.62005  -0.46536  -0.33951
C           -0.82623  -0.80654  -0.64055
C           -1.87181   0.13049   0.01097
O           -1.51328   1.39606   0.12657
O           -2.94999  -0.30167   0.34391
C            1.59072  -1.56112  -0.13303
O            1.07373  -0.83126   1.00170
H           -0.50794   1.48102  -0.19372
H           -0.97234  -0.74564  -1.72772
H           -1.06516  -1.82715  -0.33733
H            1.27503  -2.60202  -0.17765
H            2.65251  -1.40949  -0.33649