17
charge 0 multiplicity 2
N            2.18818   1.34575   0.23847
H            2.16746   2.29764   0.59604
H            3.04166   1.25296  -0.32251
H            2.24067   0.66598   1.02853
C            0.89751   1.06044  -0.51789
C            0.64170  -0.39960  -0.33541
C           -0.78794  -0.78559  -0.65085
C           -1.87342   0.06876   0.03685
O           -1.74297   1.38632  -0.05807
O           -2.84125  -0.45950   0.52976
C            1.68296  -1.44693  -0.29129
O            1.15513  -0.93367   0.94576
H           -0.92561   1.63227  -0.65997
H           -0.96264  -0.69147  -1.72846
H           -0.95419  -1.82718  -0.37849
H            1.41896  -2.47993  -0.49857
H            2.72432  -1.19818  -0.49404