17
charge 0 multiplicity 2
N            2.15675   1.37721   0.19791
H            2.06281   2.33780   0.52044
H            3.02440   1.32282  -0.34453
H            2.23148   0.73469   1.00617
C            0.93153   1.00241  -0.63081
C            0.63485  -0.41378  -0.31558
C           -0.79857  -0.81551  -0.59915
C           -1.89040   0.08068   0.00354
O           -1.64618   1.39365   0.00691
O           -2.91277  -0.38707   0.43970
C            1.65270  -1.48801  -0.25028
O            1.18423  -0.92849   0.98056
H           -0.71158   1.55988  -0.34648
H           -0.93512  -0.78717  -1.68683
H           -0.99794  -1.83338  -0.26616
H            1.35205  -2.51748  -0.43336
H            2.69370  -1.27702  -0.49821