17
charge 0 multiplicity 2
N            2.13471   1.39415   0.20246
H            2.02137   2.34969   0.53399
H            2.99372   1.36984  -0.35454
H            2.23582   0.74779   1.00628
C            0.91161   1.00692  -0.62354
C            0.63915  -0.40972  -0.30788
C           -0.79189  -0.82924  -0.57006
C           -1.88193   0.06629   0.03313
O           -1.66428   1.38573  -0.01623
O           -2.92395  -0.39605   0.42528
C            1.67114  -1.47254  -0.27258
O            1.22231  -0.93453   0.97354
H           -0.72530   1.57197  -0.33775
H           -0.93920  -0.81877  -1.65691
H           -0.97383  -1.84360  -0.21836
H            1.38054  -2.50359  -0.46240
H            2.70277  -1.24385  -0.54264