17
charge 0 multiplicity 2
N            2.14441   1.38749   0.21275
H            2.04681   2.34625   0.54030
H            3.00569   1.34712  -0.33975
H            2.22990   0.74237   1.02216
C            0.91335   1.01368  -0.60718
C            0.63483  -0.40960  -0.31051
C           -0.79623  -0.82453  -0.58736
C           -1.88645   0.07132   0.01595
O           -1.66200   1.38709  -0.03197
O           -2.90722  -0.39293   0.45926
C            1.66577  -1.47234  -0.27631
O            1.20463  -0.94203   0.97055
H           -0.72320   1.55507  -0.37938
H           -0.94099  -0.80756  -1.67403
H           -0.97804  -1.84083  -0.24124
H            1.37820  -2.50230  -0.47380
H            2.69984  -1.24081  -0.53367