17
charge 0 multiplicity 2
N            2.14749   1.38842   0.21314
H            2.03506   2.33307   0.57548
H            2.99918   1.38625  -0.35535
H            2.26180   0.71716   0.99726
C            0.91140   1.01584  -0.59893
C            0.63428  -0.40870  -0.30818
C           -0.79688  -0.82483  -0.58526
C           -1.88778   0.07129   0.01635
O           -1.66532   1.38714  -0.03687
O           -2.90834  -0.39296   0.46038
C            1.66731  -1.46951  -0.28141
O            1.20608  -0.94829   0.96936
H           -0.72189   1.55567  -0.37504
H           -0.94092  -0.80937  -1.67188
H           -0.97728  -1.84083  -0.23744
H            1.38166  -2.49867  -0.48556
H            2.70065  -1.23385  -0.53786